/*---------------------------------------------------------------------------*\
  =========                 |
  \\      /  F ield         | OpenFOAM: The Open Source CFD Toolbox
   \\    /   O peration     | Website:  https://openfoam.org
    \\  /    A nd           | Version:  12
     \\/     M anipulation  |
\*---------------------------------------------------------------------------*/
Build  : 12-86e126a7bc4d
Exec   : foamRun -parallel
Date   : Jun 27 2025
Time   : 10:29:15
Host   : "gaf-desktop"
PID    : 4926
I/O    : uncollated
Case   : /home/lucas/Downloads/GAFoam---multiphaseSolver-main/Toy12
nProcs : 2
Slaves : 1("gaf-desktop.4927")
Pstream initialised with:
    floatTransfer      : false
    nProcsSimpleSum    : 0
    commsType          : nonBlocking
    polling iterations : 0
sigFpe : Enabling floating point exception trapping (FOAM_SIGFPE).
fileModificationChecking : Monitoring run-time modified files using timeStampMaster (fileModificationSkew 10)
allowSystemOperations : Allowing user-supplied system call operations

// * * * * * * * * * * * * * * * * * * * * * * * * * * * * * * * * * * * * * //
Create time

Create mesh for time = 0

Selecting solver incompressibleDenseParticleFluid
Lookup scheme for default in dictionary "$FOAM_CASE/system/fvSchemes/ddtSchemes"
Selecting viscosity model constant
Lookup scheme for interpolate(alpha.water) in dictionary "$FOAM_CASE/system/fvSchemes/interpolationSchemes"
Selecting turbulence model type laminar
Selecting laminar stress model Stokes
Selecting parcelCloud MPPICCloud
Lookup scheme for default in dictionary "$FOAM_CASE/system/fvSchemes/ddtSchemes"
Constructing particle forces
    Selecting particle force PlessisMasliyahDrag
    Selecting particle force gravity
Constructing cloud functions
    Selecting cloud function volumeFraction1 of type volumeFraction
    Selecting cloud function massFlux1 of type massFlux
Constructing particle injection models
Creating injector: model1
Selecting injection model manualInjection
    Constructing 2-D injection
Selecting distribution type fixedValue
    min/average/max value = 0.000453/0.000453/0.000453
Selecting dispersion model none
Selecting patch interaction model localInteraction
    Interaction fields will not be written
Selecting stochastic collision model none
Selecting surface film model none
Selecting U integration scheme Euler
Selecting packing model explicit
Selecting particle stress model HarrisCrighton
Selecting correction limiter absolute
Selecting damping model none
Selecting isotropy model none
Setting fluxRequired for p
Lookup scheme for interpolate(alpha.water) in dictionary "$FOAM_CASE/system/fvSchemes/interpolationSchemes"
Courant Number mean: 0 max: 0

PIMPLE: No convergence criteria found


PIMPLE: Operating solver in transient mode with 1 outer corrector
PIMPLE: Operating solver in PISO mode


    - selecting all cells
    - selected 7500 cell(s) with volume 7.5e-05



Starting time loop

Courant Number mean: 0 max: 0
deltaT = 0.05
Time = 0.05s


Solving 2-D cloud cloud

Cloud: cloud injector: model1
    Added 7500 new parcels

Cloud: cloud
    Current number of parcels       = 7500
    Current mass in system          = 0.00226
    Linear momentum                 = (0 -0.000111982 0)
   |Linear momentum|                = 0.000111982
    Linear kinetic energy           = 2.81096e-06
    model1:
        number of parcels added     = 7500
        mass introduced             = 0.00226
    Parcel fate (number, mass)      : patch walls
      - escape                      = 0, 0
      - stick                       = 0, 0
    Parcel fate (number, mass)      : patch outlet
      - escape                      = 0, 0
      - stick                       = 0, 0
    Min cell volume fraction        = 0
    Max cell volume fraction        = 0.0399912
    Min dense number of parcels     = 2

Lookup scheme for interpolate(alpha.water) in dictionary "$FOAM_CASE/system/fvSchemes/interpolationSchemes"
Lookup scheme for interpolate(Dc) in dictionary "$FOAM_CASE/system/fvSchemes/interpolationSchemes"
Lookup scheme for flux(Fd) in dictionary "$FOAM_CASE/system/fvSchemes/interpolationSchemes"
Lookup scheme for grad(U.water) in dictionary "$FOAM_CASE/system/fvSchemes/gradSchemes"
Lookup scheme for flux((-(alpha.water*nuEff.water)*dev2(T(grad(U.water))))) in dictionary "$FOAM_CASE/system/fvSchemes/interpolationSchemes"
Lookup fluxRequired for U.water
Lookup scheme for laplacian((alpha.water*nuEff.water),U.water) in dictionary "$FOAM_CASE/system/fvSchemes/laplacianSchemes"
Lookup fluxRequired for U.water
Lookup scheme for grad(U.water) in dictionary "$FOAM_CASE/system/fvSchemes/gradSchemes"
Lookup scheme for ddt(alpha.water) in dictionary "$FOAM_CASE/system/fvSchemes/ddtSchemes"
Lookup scheme for div(alphaPhi.water,U.water) in dictionary "$FOAM_CASE/system/fvSchemes/divSchemes"
Lookup scheme for grad(U.water) in dictionary "$FOAM_CASE/system/fvSchemes/gradSchemes"
Lookup scheme for ddt(alpha.water,U.water) in dictionary "$FOAM_CASE/system/fvSchemes/ddtSchemes"
Lookup scheme for snGrad(p) in dictionary "$FOAM_CASE/system/fvSchemes/snGradSchemes"
Lookup scheme for grad(p) in dictionary "$FOAM_CASE/system/fvSchemes/gradSchemes"
smoothSolver:  Solving for U.waterx, Initial residual = 0, Final residual = 0, No Iterations 0
smoothSolver:  Solving for U.watery, Initial residual = 1, Final residual = 1.69555e-06, No Iterations 3
Lookup scheme for interpolate((1|A(U.water))) in dictionary "$FOAM_CASE/system/fvSchemes/interpolationSchemes"
Lookup scheme for ddt(U.water) in dictionary "$FOAM_CASE/system/fvSchemes/ddtSchemes"
Lookup scheme for dotInterpolate(Sf,((2*U.water_0)-(0.5*U.water_0_0))) in dictionary "$FOAM_CASE/system/fvSchemes/interpolationSchemes"
Lookup scheme for dotInterpolate(Sf,U.water_0) in dictionary "$FOAM_CASE/system/fvSchemes/interpolationSchemes"
Lookup scheme for flux(HbyA.water) in dictionary "$FOAM_CASE/system/fvSchemes/interpolationSchemes"
Lookup scheme for ddt(alpha.water) in dictionary "$FOAM_CASE/system/fvSchemes/ddtSchemes"
Lookup scheme for laplacian((alphacf*Dp),p) in dictionary "$FOAM_CASE/system/fvSchemes/laplacianSchemes"
Lookup fluxRequired for p
Lookup scheme for grad(p) in dictionary "$FOAM_CASE/system/fvSchemes/gradSchemes"
GAMG:  Solving for p, Initial residual = 1, Final residual = 7.87441e-07, No Iterations 21
Lookup fluxRequired for p
Lookup fluxRequired for p
ExecutionTime = 0.940467 s  ClockTime = 4 s

Courant Number mean: 19.0402 max: 19.9495
deltaT = 0.00025
Time = 0.05025s


Solving 2-D cloud cloud
Cloud: cloud
    Current number of parcels       = 7500
    Current mass in system          = 0.00226
    Linear momentum                 = (1.71067e-10 -0.000207377 0)
   |Linear momentum|                = 0.000207377
    Linear kinetic energy           = 9.65011e-06
    model1:
        number of parcels added     = 7500
        mass introduced             = 0.00226
    Parcel fate (number, mass)      : patch walls
      - escape                      = 0, 0
      - stick                       = 0, 0
    Parcel fate (number, mass)      : patch outlet
      - escape                      = 0, 0
      - stick                       = 0, 0
    Min cell volume fraction        = 0
    Max cell volume fraction        = 0.0399912
    Min dense number of parcels     = 2

Lookup scheme for interpolate(alpha.water) in dictionary "$FOAM_CASE/system/fvSchemes/interpolationSchemes"
Lookup scheme for interpolate(Dc) in dictionary "$FOAM_CASE/system/fvSchemes/interpolationSchemes"
Lookup scheme for flux(Fd) in dictionary "$FOAM_CASE/system/fvSchemes/interpolationSchemes"
Lookup scheme for grad(U.water) in dictionary "$FOAM_CASE/system/fvSchemes/gradSchemes"
Lookup scheme for flux((-(alpha.water*nuEff.water)*dev2(T(grad(U.water))))) in dictionary "$FOAM_CASE/system/fvSchemes/interpolationSchemes"
Lookup fluxRequired for U.water
Lookup scheme for laplacian((alpha.water*nuEff.water),U.water) in dictionary "$FOAM_CASE/system/fvSchemes/laplacianSchemes"
Lookup fluxRequired for U.water
Lookup scheme for grad(U.water) in dictionary "$FOAM_CASE/system/fvSchemes/gradSchemes"
Lookup scheme for ddt(alpha.water) in dictionary "$FOAM_CASE/system/fvSchemes/ddtSchemes"
Lookup scheme for div(alphaPhi.water,U.water) in dictionary "$FOAM_CASE/system/fvSchemes/divSchemes"
Lookup scheme for grad(U.water) in dictionary "$FOAM_CASE/system/fvSchemes/gradSchemes"
Lookup scheme for ddt(alpha.water,U.water) in dictionary "$FOAM_CASE/system/fvSchemes/ddtSchemes"
Lookup scheme for snGrad(p) in dictionary "$FOAM_CASE/system/fvSchemes/snGradSchemes"
Lookup scheme for grad(p) in dictionary "$FOAM_CASE/system/fvSchemes/gradSchemes"
smoothSolver:  Solving for U.waterx, Initial residual = 0.027122, Final residual = 4.18844e-07, No Iterations 2
smoothSolver:  Solving for U.watery, Initial residual = 0.173221, Final residual = 1.97011e-06, No Iterations 2
Lookup scheme for interpolate((1|A(U.water))) in dictionary "$FOAM_CASE/system/fvSchemes/interpolationSchemes"
Lookup scheme for ddt(U.water) in dictionary "$FOAM_CASE/system/fvSchemes/ddtSchemes"
Lookup scheme for dotInterpolate(Sf,((1.005*U.water_0)-(2.48756e-05*U.water_0_0))) in dictionary "$FOAM_CASE/system/fvSchemes/interpolationSchemes"
Lookup scheme for dotInterpolate(Sf,U.water_0) in dictionary "$FOAM_CASE/system/fvSchemes/interpolationSchemes"
Lookup scheme for flux(HbyA.water) in dictionary "$FOAM_CASE/system/fvSchemes/interpolationSchemes"
Lookup scheme for ddt(alpha.water) in dictionary "$FOAM_CASE/system/fvSchemes/ddtSchemes"
Lookup scheme for laplacian((alphacf*Dp),p) in dictionary "$FOAM_CASE/system/fvSchemes/laplacianSchemes"
Lookup fluxRequired for p
Lookup scheme for grad(p) in dictionary "$FOAM_CASE/system/fvSchemes/gradSchemes"
GAMG:  Solving for p, Initial residual = 0.748358, Final residual = 8.66936e-07, No Iterations 21
Lookup fluxRequired for p
Lookup fluxRequired for p
ExecutionTime = 1.29248 s  ClockTime = 4 s

Courant Number mean: 0.00224908 max: 0.0113854
deltaT = 0.000299699
Time = 0.0505497s


Solving 2-D cloud cloud
Cloud: cloud
    Current number of parcels       = 7500
    Current mass in system          = 0.00226
    Linear momentum                 = (7.89135e-09 -0.000197959 0)
   |Linear momentum|                = 0.000197959
    Linear kinetic energy           = 8.79652e-06
    model1:
        number of parcels added     = 7500
        mass introduced             = 0.00226
    Parcel fate (number, mass)      : patch walls
      - escape                      = 0, 0
      - stick                       = 0, 0
    Parcel fate (number, mass)      : patch outlet
      - escape                      = 0, 0
      - stick                       = 0, 0
    Min cell volume fraction        = 0
    Max cell volume fraction        = 0.0399912
    Min dense number of parcels     = 2

Lookup scheme for interpolate(alpha.water) in dictionary "$FOAM_CASE/system/fvSchemes/interpolationSchemes"
Lookup scheme for interpolate(Dc) in dictionary "$FOAM_CASE/system/fvSchemes/interpolationSchemes"
Lookup scheme for flux(Fd) in dictionary "$FOAM_CASE/system/fvSchemes/interpolationSchemes"
Lookup scheme for grad(U.water) in dictionary "$FOAM_CASE/system/fvSchemes/gradSchemes"
Lookup scheme for flux((-(alpha.water*nuEff.water)*dev2(T(grad(U.water))))) in dictionary "$FOAM_CASE/system/fvSchemes/interpolationSchemes"
Lookup fluxRequired for U.water
Lookup scheme for laplacian((alpha.water*nuEff.water),U.water) in dictionary "$FOAM_CASE/system/fvSchemes/laplacianSchemes"
Lookup fluxRequired for U.water
Lookup scheme for grad(U.water) in dictionary "$FOAM_CASE/system/fvSchemes/gradSchemes"
Lookup scheme for ddt(alpha.water) in dictionary "$FOAM_CASE/system/fvSchemes/ddtSchemes"
Lookup scheme for div(alphaPhi.water,U.water) in dictionary "$FOAM_CASE/system/fvSchemes/divSchemes"
Lookup scheme for grad(U.water) in dictionary "$FOAM_CASE/system/fvSchemes/gradSchemes"
Lookup scheme for ddt(alpha.water,U.water) in dictionary "$FOAM_CASE/system/fvSchemes/ddtSchemes"
Lookup scheme for snGrad(p) in dictionary "$FOAM_CASE/system/fvSchemes/snGradSchemes"
Lookup scheme for grad(p) in dictionary "$FOAM_CASE/system/fvSchemes/gradSchemes"
smoothSolver:  Solving for U.waterx, Initial residual = 0.376753, Final residual = 3.47605e-06, No Iterations 1
smoothSolver:  Solving for U.watery, Initial residual = 0.982352, Final residual = 6.29203e-09, No Iterations 2
Lookup scheme for interpolate((1|A(U.water))) in dictionary "$FOAM_CASE/system/fvSchemes/interpolationSchemes"
Lookup scheme for ddt(U.water) in dictionary "$FOAM_CASE/system/fvSchemes/ddtSchemes"
Lookup scheme for dotInterpolate(Sf,((2.1988*U.water_0)-(0.65359*U.water_0_0))) in dictionary "$FOAM_CASE/system/fvSchemes/interpolationSchemes"
Lookup scheme for dotInterpolate(Sf,U.water_0) in dictionary "$FOAM_CASE/system/fvSchemes/interpolationSchemes"
Lookup scheme for flux(HbyA.water) in dictionary "$FOAM_CASE/system/fvSchemes/interpolationSchemes"
Lookup scheme for ddt(alpha.water) in dictionary "$FOAM_CASE/system/fvSchemes/ddtSchemes"
Lookup scheme for laplacian((alphacf*Dp),p) in dictionary "$FOAM_CASE/system/fvSchemes/laplacianSchemes"
Lookup fluxRequired for p
Lookup scheme for grad(p) in dictionary "$FOAM_CASE/system/fvSchemes/gradSchemes"
GAMG:  Solving for p, Initial residual = 0.0088923, Final residual = 9.25424e-07, No Iterations 14
Lookup fluxRequired for p
Lookup fluxRequired for p
ExecutionTime = 1.63853 s  ClockTime = 5 s

Courant Number mean: 0.00321346 max: 0.0158765
deltaT = 0.000358336
Time = 0.050908s


Solving 2-D cloud cloud
Cloud: cloud
    Current number of parcels       = 7500
    Current mass in system          = 0.00226
    Linear momentum                 = (1.68355e-08 -0.000188586 0)
   |Linear momentum|                = 0.000188586
    Linear kinetic energy           = 7.99016e-06
    model1:
        number of parcels added     = 7500
        mass introduced             = 0.00226
    Parcel fate (number, mass)      : patch walls
      - escape                      = 0, 0
      - stick                       = 0, 0
    Parcel fate (number, mass)      : patch outlet
      - escape                      = 0, 0
      - stick                       = 0, 0
    Min cell volume fraction        = 0
    Max cell volume fraction        = 0.0399912
    Min dense number of parcels     = 2

Lookup scheme for interpolate(alpha.water) in dictionary "$FOAM_CASE/system/fvSchemes/interpolationSchemes"
Lookup scheme for interpolate(Dc) in dictionary "$FOAM_CASE/system/fvSchemes/interpolationSchemes"
Lookup scheme for flux(Fd) in dictionary "$FOAM_CASE/system/fvSchemes/interpolationSchemes"
Lookup scheme for grad(U.water) in dictionary "$FOAM_CASE/system/fvSchemes/gradSchemes"
Lookup scheme for flux((-(alpha.water*nuEff.water)*dev2(T(grad(U.water))))) in dictionary "$FOAM_CASE/system/fvSchemes/interpolationSchemes"
Lookup fluxRequired for U.water
Lookup scheme for laplacian((alpha.water*nuEff.water),U.water) in dictionary "$FOAM_CASE/system/fvSchemes/laplacianSchemes"
Lookup fluxRequired for U.water
Lookup scheme for grad(U.water) in dictionary "$FOAM_CASE/system/fvSchemes/gradSchemes"
Lookup scheme for ddt(alpha.water) in dictionary "$FOAM_CASE/system/fvSchemes/ddtSchemes"
Lookup scheme for div(alphaPhi.water,U.water) in dictionary "$FOAM_CASE/system/fvSchemes/divSchemes"
Lookup scheme for grad(U.water) in dictionary "$FOAM_CASE/system/fvSchemes/gradSchemes"
Lookup scheme for ddt(alpha.water,U.water) in dictionary "$FOAM_CASE/system/fvSchemes/ddtSchemes"
Lookup scheme for snGrad(p) in dictionary "$FOAM_CASE/system/fvSchemes/snGradSchemes"
Lookup scheme for grad(p) in dictionary "$FOAM_CASE/system/fvSchemes/gradSchemes"
smoothSolver:  Solving for U.waterx, Initial residual = 0.156746, Final residual = 2.11106e-06, No Iterations 1
smoothSolver:  Solving for U.watery, Initial residual = 0.949528, Final residual = 1.12847e-08, No Iterations 2
Lookup scheme for interpolate((1|A(U.water))) in dictionary "$FOAM_CASE/system/fvSchemes/interpolationSchemes"
Lookup scheme for ddt(U.water) in dictionary "$FOAM_CASE/system/fvSchemes/ddtSchemes"
Lookup scheme for dotInterpolate(Sf,((2.19565*U.water_0)-(0.651098*U.water_0_0))) in dictionary "$FOAM_CASE/system/fvSchemes/interpolationSchemes"
Lookup scheme for dotInterpolate(Sf,U.water_0) in dictionary "$FOAM_CASE/system/fvSchemes/interpolationSchemes"
Lookup scheme for flux(HbyA.water) in dictionary "$FOAM_CASE/system/fvSchemes/interpolationSchemes"
Lookup scheme for ddt(alpha.water) in dictionary "$FOAM_CASE/system/fvSchemes/ddtSchemes"
Lookup scheme for laplacian((alphacf*Dp),p) in dictionary "$FOAM_CASE/system/fvSchemes/laplacianSchemes"
Lookup fluxRequired for p
Lookup scheme for grad(p) in dictionary "$FOAM_CASE/system/fvSchemes/gradSchemes"
GAMG:  Solving for p, Initial residual = 0.00717811, Final residual = 6.19071e-07, No Iterations 14
Lookup fluxRequired for p
Lookup fluxRequired for p
ExecutionTime = 1.99415 s  ClockTime = 5 s

Courant Number mean: 0.00415639 max: 0.0195433
deltaT = 0.000426887
Time = 0.0513349s


Solving 2-D cloud cloud
Cloud: cloud
    Current number of parcels       = 7500
    Current mass in system          = 0.00226
    Linear momentum                 = (2.67399e-08 -0.000179202 0)
   |Linear momentum|                = 0.000179202
    Linear kinetic energy           = 7.22926e-06
    model1:
        number of parcels added     = 7500
        mass introduced             = 0.00226
    Parcel fate (number, mass)      : patch walls
      - escape                      = 0, 0
      - stick                       = 0, 0
    Parcel fate (number, mass)      : patch outlet
      - escape                      = 0, 0
      - stick                       = 0, 0
    Min cell volume fraction        = 0
    Max cell volume fraction        = 0.0399912
    Min dense number of parcels     = 2

Lookup scheme for interpolate(alpha.water) in dictionary "$FOAM_CASE/system/fvSchemes/interpolationSchemes"
Lookup scheme for interpolate(Dc) in dictionary "$FOAM_CASE/system/fvSchemes/interpolationSchemes"
Lookup scheme for flux(Fd) in dictionary "$FOAM_CASE/system/fvSchemes/interpolationSchemes"
Lookup scheme for grad(U.water) in dictionary "$FOAM_CASE/system/fvSchemes/gradSchemes"
Lookup scheme for flux((-(alpha.water*nuEff.water)*dev2(T(grad(U.water))))) in dictionary "$FOAM_CASE/system/fvSchemes/interpolationSchemes"
Lookup fluxRequired for U.water
Lookup scheme for laplacian((alpha.water*nuEff.water),U.water) in dictionary "$FOAM_CASE/system/fvSchemes/laplacianSchemes"
Lookup fluxRequired for U.water
Lookup scheme for grad(U.water) in dictionary "$FOAM_CASE/system/fvSchemes/gradSchemes"
Lookup scheme for ddt(alpha.water) in dictionary "$FOAM_CASE/system/fvSchemes/ddtSchemes"
Lookup scheme for div(alphaPhi.water,U.water) in dictionary "$FOAM_CASE/system/fvSchemes/divSchemes"
Lookup scheme for grad(U.water) in dictionary "$FOAM_CASE/system/fvSchemes/gradSchemes"
Lookup scheme for ddt(alpha.water,U.water) in dictionary "$FOAM_CASE/system/fvSchemes/ddtSchemes"
Lookup scheme for snGrad(p) in dictionary "$FOAM_CASE/system/fvSchemes/snGradSchemes"
Lookup scheme for grad(p) in dictionary "$FOAM_CASE/system/fvSchemes/gradSchemes"
smoothSolver:  Solving for U.waterx, Initial residual = 0.0895105, Final residual = 1.58332e-06, No Iterations 1
smoothSolver:  Solving for U.watery, Initial residual = 0.0598214, Final residual = 6.45855e-07, No Iterations 1
Lookup scheme for interpolate((1|A(U.water))) in dictionary "$FOAM_CASE/system/fvSchemes/interpolationSchemes"
Lookup scheme for ddt(U.water) in dictionary "$FOAM_CASE/system/fvSchemes/ddtSchemes"
Lookup scheme for dotInterpolate(Sf,((2.1913*U.water_0)-(0.647654*U.water_0_0))) in dictionary "$FOAM_CASE/system/fvSchemes/interpolationSchemes"
Lookup scheme for dotInterpolate(Sf,U.water_0) in dictionary "$FOAM_CASE/system/fvSchemes/interpolationSchemes"
Lookup scheme for flux(HbyA.water) in dictionary "$FOAM_CASE/system/fvSchemes/interpolationSchemes"
Lookup scheme for ddt(alpha.water) in dictionary "$FOAM_CASE/system/fvSchemes/ddtSchemes"
Lookup scheme for laplacian((alphacf*Dp),p) in dictionary "$FOAM_CASE/system/fvSchemes/laplacianSchemes"
Lookup fluxRequired for p
Lookup scheme for grad(p) in dictionary "$FOAM_CASE/system/fvSchemes/gradSchemes"
GAMG:  Solving for p, Initial residual = 0.153658, Final residual = 8.59443e-07, No Iterations 12
Lookup fluxRequired for p
Lookup fluxRequired for p
ExecutionTime = 2.34562 s  ClockTime = 5 s

Courant Number mean: 0.00510526 max: 0.0233748
deltaT = 0.000512264
Time = 0.0518472s


Solving 2-D cloud cloud
Cloud: cloud
    Current number of parcels       = 7500
    Current mass in system          = 0.00226
    Linear momentum                 = (3.99352e-08 -0.000169671 0)
   |Linear momentum|                = 0.000169671
    Linear kinetic energy           = 6.49906e-06
    model1:
        number of parcels added     = 7500
        mass introduced             = 0.00226
    Parcel fate (number, mass)      : patch walls
      - escape                      = 0, 0
      - stick                       = 0, 0
    Parcel fate (number, mass)      : patch outlet
      - escape                      = 0, 0
      - stick                       = 0, 0
    Min cell volume fraction        = 0
    Max cell volume fraction        = 0.0399912
    Min dense number of parcels     = 2

Lookup scheme for interpolate(alpha.water) in dictionary "$FOAM_CASE/system/fvSchemes/interpolationSchemes"
Lookup scheme for interpolate(Dc) in dictionary "$FOAM_CASE/system/fvSchemes/interpolationSchemes"
Lookup scheme for flux(Fd) in dictionary "$FOAM_CASE/system/fvSchemes/interpolationSchemes"
Lookup scheme for grad(U.water) in dictionary "$FOAM_CASE/system/fvSchemes/gradSchemes"
Lookup scheme for flux((-(alpha.water*nuEff.water)*dev2(T(grad(U.water))))) in dictionary "$FOAM_CASE/system/fvSchemes/interpolationSchemes"
Lookup fluxRequired for U.water
Lookup scheme for laplacian((alpha.water*nuEff.water),U.water) in dictionary "$FOAM_CASE/system/fvSchemes/laplacianSchemes"
Lookup fluxRequired for U.water
Lookup scheme for grad(U.water) in dictionary "$FOAM_CASE/system/fvSchemes/gradSchemes"
Lookup scheme for ddt(alpha.water) in dictionary "$FOAM_CASE/system/fvSchemes/ddtSchemes"
Lookup scheme for div(alphaPhi.water,U.water) in dictionary "$FOAM_CASE/system/fvSchemes/divSchemes"
Lookup scheme for grad(U.water) in dictionary "$FOAM_CASE/system/fvSchemes/gradSchemes"
Lookup scheme for ddt(alpha.water,U.water) in dictionary "$FOAM_CASE/system/fvSchemes/ddtSchemes"
Lookup scheme for snGrad(p) in dictionary "$FOAM_CASE/system/fvSchemes/snGradSchemes"
Lookup scheme for grad(p) in dictionary "$FOAM_CASE/system/fvSchemes/gradSchemes"
smoothSolver:  Solving for U.waterx, Initial residual = 0.0515265, Final residual = 1.1981e-06, No Iterations 1
smoothSolver:  Solving for U.watery, Initial residual = 0.0457765, Final residual = 7.98532e-07, No Iterations 1
Lookup scheme for interpolate((1|A(U.water))) in dictionary "$FOAM_CASE/system/fvSchemes/interpolationSchemes"
Lookup scheme for ddt(U.water) in dictionary "$FOAM_CASE/system/fvSchemes/ddtSchemes"
Lookup scheme for dotInterpolate(Sf,((2.2*U.water_0)-(0.654545*U.water_0_0))) in dictionary "$FOAM_CASE/system/fvSchemes/interpolationSchemes"
Lookup scheme for dotInterpolate(Sf,U.water_0) in dictionary "$FOAM_CASE/system/fvSchemes/interpolationSchemes"
Lookup scheme for flux(HbyA.water) in dictionary "$FOAM_CASE/system/fvSchemes/interpolationSchemes"
Lookup scheme for ddt(alpha.water) in dictionary "$FOAM_CASE/system/fvSchemes/ddtSchemes"
Lookup scheme for laplacian((alphacf*Dp),p) in dictionary "$FOAM_CASE/system/fvSchemes/laplacianSchemes"
Lookup fluxRequired for p
Lookup scheme for grad(p) in dictionary "$FOAM_CASE/system/fvSchemes/gradSchemes"
GAMG:  Solving for p, Initial residual = 0.100671, Final residual = 8.52848e-07, No Iterations 10
Lookup fluxRequired for p
Lookup fluxRequired for p
ExecutionTime = 2.6941 s  ClockTime = 6 s

Courant Number mean: 0.00625015 max: 0.0277977
deltaT = 0.000609529
Time = 0.0524567s


Solving 2-D cloud cloud
Cloud: cloud
    Current number of parcels       = 7500
    Current mass in system          = 0.00226
    Linear momentum                 = (5.51371e-08 -0.000160395 0)
   |Linear momentum|                = 0.000160395
    Linear kinetic energy           = 5.82753e-06
    model1:
        number of parcels added     = 7500
        mass introduced             = 0.00226
    Parcel fate (number, mass)      : patch walls
      - escape                      = 0, 0
      - stick                       = 0, 0
    Parcel fate (number, mass)      : patch outlet
      - escape                      = 0, 0
      - stick                       = 0, 0
    Min cell volume fraction        = 0
    Max cell volume fraction        = 0.0399912
    Min dense number of parcels     = 2

Lookup scheme for interpolate(alpha.water) in dictionary "$FOAM_CASE/system/fvSchemes/interpolationSchemes"
Lookup scheme for interpolate(Dc) in dictionary "$FOAM_CASE/system/fvSchemes/interpolationSchemes"
Lookup scheme for flux(Fd) in dictionary "$FOAM_CASE/system/fvSchemes/interpolationSchemes"
Lookup scheme for grad(U.water) in dictionary "$FOAM_CASE/system/fvSchemes/gradSchemes"
Lookup scheme for flux((-(alpha.water*nuEff.water)*dev2(T(grad(U.water))))) in dictionary "$FOAM_CASE/system/fvSchemes/interpolationSchemes"
Lookup fluxRequired for U.water
Lookup scheme for laplacian((alpha.water*nuEff.water),U.water) in dictionary "$FOAM_CASE/system/fvSchemes/laplacianSchemes"
Lookup fluxRequired for U.water
Lookup scheme for grad(U.water) in dictionary "$FOAM_CASE/system/fvSchemes/gradSchemes"
Lookup scheme for ddt(alpha.water) in dictionary "$FOAM_CASE/system/fvSchemes/ddtSchemes"
Lookup scheme for div(alphaPhi.water,U.water) in dictionary "$FOAM_CASE/system/fvSchemes/divSchemes"
Lookup scheme for grad(U.water) in dictionary "$FOAM_CASE/system/fvSchemes/gradSchemes"
Lookup scheme for ddt(alpha.water,U.water) in dictionary "$FOAM_CASE/system/fvSchemes/ddtSchemes"
Lookup scheme for snGrad(p) in dictionary "$FOAM_CASE/system/fvSchemes/snGradSchemes"
Lookup scheme for grad(p) in dictionary "$FOAM_CASE/system/fvSchemes/gradSchemes"
smoothSolver:  Solving for U.waterx, Initial residual = 0.0318143, Final residual = 9.40271e-07, No Iterations 1
smoothSolver:  Solving for U.watery, Initial residual = 0.0434417, Final residual = 1.10854e-06, No Iterations 1
Lookup scheme for interpolate((1|A(U.water))) in dictionary "$FOAM_CASE/system/fvSchemes/interpolationSchemes"
Lookup scheme for ddt(U.water) in dictionary "$FOAM_CASE/system/fvSchemes/ddtSchemes"
Lookup scheme for dotInterpolate(Sf,((2.18987*U.water_0)-(0.646521*U.water_0_0))) in dictionary "$FOAM_CASE/system/fvSchemes/interpolationSchemes"
Lookup scheme for dotInterpolate(Sf,U.water_0) in dictionary "$FOAM_CASE/system/fvSchemes/interpolationSchemes"
Lookup scheme for flux(HbyA.water) in dictionary "$FOAM_CASE/system/fvSchemes/interpolationSchemes"
Lookup scheme for ddt(alpha.water) in dictionary "$FOAM_CASE/system/fvSchemes/ddtSchemes"
Lookup scheme for laplacian((alphacf*Dp),p) in dictionary "$FOAM_CASE/system/fvSchemes/laplacianSchemes"
Lookup fluxRequired for p
Lookup scheme for grad(p) in dictionary "$FOAM_CASE/system/fvSchemes/gradSchemes"
GAMG:  Solving for p, Initial residual = 0.0696952, Final residual = 8.97225e-07, No Iterations 10
Lookup fluxRequired for p
Lookup fluxRequired for p
ExecutionTime = 3.05812 s  ClockTime = 6 s

Courant Number mean: 0.00757904 max: 0.0325611
deltaT = 0.000731435
Time = 0.0531881s


Solving 2-D cloud cloud
Cloud: cloud
    Current number of parcels       = 7500
    Current mass in system          = 0.00226
    Linear momentum                 = (7.21026e-08 -0.000151297 0)
   |Linear momentum|                = 0.000151297
    Linear kinetic energy           = 5.20431e-06
    model1:
        number of parcels added     = 7500
        mass introduced             = 0.00226
    Parcel fate (number, mass)      : patch walls
      - escape                      = 0, 0
      - stick                       = 0, 0
    Parcel fate (number, mass)      : patch outlet
      - escape                      = 0, 0
      - stick                       = 0, 0
    Min cell volume fraction        = 0
    Max cell volume fraction        = 0.0399912
    Min dense number of parcels     = 2

Lookup scheme for interpolate(alpha.water) in dictionary "$FOAM_CASE/system/fvSchemes/interpolationSchemes"
Lookup scheme for interpolate(Dc) in dictionary "$FOAM_CASE/system/fvSchemes/interpolationSchemes"
Lookup scheme for flux(Fd) in dictionary "$FOAM_CASE/system/fvSchemes/interpolationSchemes"
Lookup scheme for grad(U.water) in dictionary "$FOAM_CASE/system/fvSchemes/gradSchemes"
Lookup scheme for flux((-(alpha.water*nuEff.water)*dev2(T(grad(U.water))))) in dictionary "$FOAM_CASE/system/fvSchemes/interpolationSchemes"
Lookup fluxRequired for U.water
Lookup scheme for laplacian((alpha.water*nuEff.water),U.water) in dictionary "$FOAM_CASE/system/fvSchemes/laplacianSchemes"
Lookup fluxRequired for U.water
Lookup scheme for grad(U.water) in dictionary "$FOAM_CASE/system/fvSchemes/gradSchemes"
Lookup scheme for ddt(alpha.water) in dictionary "$FOAM_CASE/system/fvSchemes/ddtSchemes"
Lookup scheme for div(alphaPhi.water,U.water) in dictionary "$FOAM_CASE/system/fvSchemes/divSchemes"
Lookup scheme for grad(U.water) in dictionary "$FOAM_CASE/system/fvSchemes/gradSchemes"
Lookup scheme for ddt(alpha.water,U.water) in dictionary "$FOAM_CASE/system/fvSchemes/ddtSchemes"
Lookup scheme for snGrad(p) in dictionary "$FOAM_CASE/system/fvSchemes/snGradSchemes"
Lookup scheme for grad(p) in dictionary "$FOAM_CASE/system/fvSchemes/gradSchemes"
smoothSolver:  Solving for U.waterx, Initial residual = 0.0203345, Final residual = 7.70922e-07, No Iterations 1
smoothSolver:  Solving for U.watery, Initial residual = 0.0428495, Final residual = 1.50665e-06, No Iterations 1
Lookup scheme for interpolate((1|A(U.water))) in dictionary "$FOAM_CASE/system/fvSchemes/interpolationSchemes"
Lookup scheme for ddt(U.water) in dictionary "$FOAM_CASE/system/fvSchemes/ddtSchemes"
Lookup scheme for dotInterpolate(Sf,((2.2*U.water_0)-(0.654545*U.water_0_0))) in dictionary "$FOAM_CASE/system/fvSchemes/interpolationSchemes"
Lookup scheme for dotInterpolate(Sf,U.water_0) in dictionary "$FOAM_CASE/system/fvSchemes/interpolationSchemes"
Lookup scheme for flux(HbyA.water) in dictionary "$FOAM_CASE/system/fvSchemes/interpolationSchemes"
Lookup scheme for ddt(alpha.water) in dictionary "$FOAM_CASE/system/fvSchemes/ddtSchemes"
Lookup scheme for laplacian((alphacf*Dp),p) in dictionary "$FOAM_CASE/system/fvSchemes/laplacianSchemes"
Lookup fluxRequired for p
Lookup scheme for grad(p) in dictionary "$FOAM_CASE/system/fvSchemes/gradSchemes"
GAMG:  Solving for p, Initial residual = 0.0470305, Final residual = 9.08343e-07, No Iterations 9
Lookup fluxRequired for p
Lookup fluxRequired for p
ExecutionTime = 3.40838 s  ClockTime = 6 s

Courant Number mean: 0.009329 max: 0.0382548
deltaT = 0.000866886
Time = 0.054055s


Solving 2-D cloud cloud
Cloud: cloud
    Current number of parcels       = 7500
    Current mass in system          = 0.00226
    Linear momentum                 = (8.9724e-08 -0.000142589 0)
   |Linear momentum|                = 0.000142589
    Linear kinetic energy           = 4.63961e-06
    model1:
        number of parcels added     = 7500
        mass introduced             = 0.00226
    Parcel fate (number, mass)      : patch walls
      - escape                      = 0, 0
      - stick                       = 0, 0
    Parcel fate (number, mass)      : patch outlet
      - escape                      = 0, 0
      - stick                       = 0, 0
    Min cell volume fraction        = 0
    Max cell volume fraction        = 0.0399912
    Min dense number of parcels     = 2

Lookup scheme for interpolate(alpha.water) in dictionary "$FOAM_CASE/system/fvSchemes/interpolationSchemes"
Lookup scheme for interpolate(Dc) in dictionary "$FOAM_CASE/system/fvSchemes/interpolationSchemes"
Lookup scheme for flux(Fd) in dictionary "$FOAM_CASE/system/fvSchemes/interpolationSchemes"
Lookup scheme for grad(U.water) in dictionary "$FOAM_CASE/system/fvSchemes/gradSchemes"
Lookup scheme for flux((-(alpha.water*nuEff.water)*dev2(T(grad(U.water))))) in dictionary "$FOAM_CASE/system/fvSchemes/interpolationSchemes"
Lookup fluxRequired for U.water
Lookup scheme for laplacian((alpha.water*nuEff.water),U.water) in dictionary "$FOAM_CASE/system/fvSchemes/laplacianSchemes"
Lookup fluxRequired for U.water
Lookup scheme for grad(U.water) in dictionary "$FOAM_CASE/system/fvSchemes/gradSchemes"
Lookup scheme for ddt(alpha.water) in dictionary "$FOAM_CASE/system/fvSchemes/ddtSchemes"
Lookup scheme for div(alphaPhi.water,U.water) in dictionary "$FOAM_CASE/system/fvSchemes/divSchemes"
Lookup scheme for grad(U.water) in dictionary "$FOAM_CASE/system/fvSchemes/gradSchemes"
Lookup scheme for ddt(alpha.water,U.water) in dictionary "$FOAM_CASE/system/fvSchemes/ddtSchemes"
Lookup scheme for snGrad(p) in dictionary "$FOAM_CASE/system/fvSchemes/snGradSchemes"
Lookup scheme for grad(p) in dictionary "$FOAM_CASE/system/fvSchemes/gradSchemes"
smoothSolver:  Solving for U.waterx, Initial residual = 0.0132693, Final residual = 6.46807e-07, No Iterations 1
smoothSolver:  Solving for U.watery, Initial residual = 0.0489937, Final residual = 2.30705e-06, No Iterations 1
Lookup scheme for interpolate((1|A(U.water))) in dictionary "$FOAM_CASE/system/fvSchemes/interpolationSchemes"
Lookup scheme for ddt(U.water) in dictionary "$FOAM_CASE/system/fvSchemes/ddtSchemes"
Lookup scheme for dotInterpolate(Sf,((2.18519*U.water_0)-(0.642812*U.water_0_0))) in dictionary "$FOAM_CASE/system/fvSchemes/interpolationSchemes"
Lookup scheme for dotInterpolate(Sf,U.water_0) in dictionary "$FOAM_CASE/system/fvSchemes/interpolationSchemes"
Lookup scheme for flux(HbyA.water) in dictionary "$FOAM_CASE/system/fvSchemes/interpolationSchemes"
Lookup scheme for ddt(alpha.water) in dictionary "$FOAM_CASE/system/fvSchemes/ddtSchemes"
Lookup scheme for laplacian((alphacf*Dp),p) in dictionary "$FOAM_CASE/system/fvSchemes/laplacianSchemes"
Lookup fluxRequired for p
Lookup scheme for grad(p) in dictionary "$FOAM_CASE/system/fvSchemes/gradSchemes"
GAMG:  Solving for p, Initial residual = 0.0324593, Final residual = 5.28127e-07, No Iterations 10
Lookup fluxRequired for p
Lookup fluxRequired for p
ExecutionTime = 3.75857 s  ClockTime = 7 s

Courant Number mean: 0.0114268 max: 0.0442215
deltaT = 0.001021
Time = 0.055076s


Solving 2-D cloud cloud
Cloud: cloud
    Current number of parcels       = 7500
    Current mass in system          = 0.00226
    Linear momentum                 = (1.08283e-07 -0.000134245 0)
   |Linear momentum|                = 0.000134245
    Linear kinetic energy           = 4.12652e-06
    model1:
        number of parcels added     = 7500
        mass introduced             = 0.00226
    Parcel fate (number, mass)      : patch walls
      - escape                      = 0, 0
      - stick                       = 0, 0
    Parcel fate (number, mass)      : patch outlet
      - escape                      = 0, 0
      - stick                       = 0, 0
    Min cell volume fraction        = 0
    Max cell volume fraction        = 0.0399912
    Min dense number of parcels     = 2

Lookup scheme for interpolate(alpha.water) in dictionary "$FOAM_CASE/system/fvSchemes/interpolationSchemes"
Lookup scheme for interpolate(Dc) in dictionary "$FOAM_CASE/system/fvSchemes/interpolationSchemes"
Lookup scheme for flux(Fd) in dictionary "$FOAM_CASE/system/fvSchemes/interpolationSchemes"
Lookup scheme for grad(U.water) in dictionary "$FOAM_CASE/system/fvSchemes/gradSchemes"
Lookup scheme for flux((-(alpha.water*nuEff.water)*dev2(T(grad(U.water))))) in dictionary "$FOAM_CASE/system/fvSchemes/interpolationSchemes"
Lookup fluxRequired for U.water
Lookup scheme for laplacian((alpha.water*nuEff.water),U.water) in dictionary "$FOAM_CASE/system/fvSchemes/laplacianSchemes"
Lookup fluxRequired for U.water
Lookup scheme for grad(U.water) in dictionary "$FOAM_CASE/system/fvSchemes/gradSchemes"
Lookup scheme for ddt(alpha.water) in dictionary "$FOAM_CASE/system/fvSchemes/ddtSchemes"
Lookup scheme for div(alphaPhi.water,U.water) in dictionary "$FOAM_CASE/system/fvSchemes/divSchemes"
Lookup scheme for grad(U.water) in dictionary "$FOAM_CASE/system/fvSchemes/gradSchemes"
Lookup scheme for ddt(alpha.water,U.water) in dictionary "$FOAM_CASE/system/fvSchemes/ddtSchemes"
Lookup scheme for snGrad(p) in dictionary "$FOAM_CASE/system/fvSchemes/snGradSchemes"
Lookup scheme for grad(p) in dictionary "$FOAM_CASE/system/fvSchemes/gradSchemes"
smoothSolver:  Solving for U.waterx, Initial residual = 0.010017, Final residual = 6.44516e-07, No Iterations 1
smoothSolver:  Solving for U.watery, Initial residual = 0.052535, Final residual = 3.23576e-06, No Iterations 1
Lookup scheme for interpolate((1|A(U.water))) in dictionary "$FOAM_CASE/system/fvSchemes/interpolationSchemes"
Lookup scheme for ddt(U.water) in dictionary "$FOAM_CASE/system/fvSchemes/ddtSchemes"
Lookup scheme for dotInterpolate(Sf,((2.17778*U.water_0)-(0.636961*U.water_0_0))) in dictionary "$FOAM_CASE/system/fvSchemes/interpolationSchemes"
Lookup scheme for dotInterpolate(Sf,U.water_0) in dictionary "$FOAM_CASE/system/fvSchemes/interpolationSchemes"
Lookup scheme for flux(HbyA.water) in dictionary "$FOAM_CASE/system/fvSchemes/interpolationSchemes"
Lookup scheme for ddt(alpha.water) in dictionary "$FOAM_CASE/system/fvSchemes/ddtSchemes"
Lookup scheme for laplacian((alphacf*Dp),p) in dictionary "$FOAM_CASE/system/fvSchemes/laplacianSchemes"
Lookup fluxRequired for p
Lookup scheme for grad(p) in dictionary "$FOAM_CASE/system/fvSchemes/gradSchemes"
GAMG:  Solving for p, Initial residual = 0.0223661, Final residual = 9.90516e-07, No Iterations 9
Lookup fluxRequired for p
Lookup fluxRequired for p
ExecutionTime = 4.10692 s  ClockTime = 7 s

Courant Number mean: 0.0140236 max: 0.0506032
deltaT = 0.00121416
Time = 0.0562902s


Solving 2-D cloud cloud
Cloud: cloud
    Current number of parcels       = 7500
    Current mass in system          = 0.00226
    Linear momentum                 = (1.24544e-07 -0.000126007 0)
   |Linear momentum|                = 0.000126007
    Linear kinetic energy           = 3.64632e-06
    model1:
        number of parcels added     = 7500
        mass introduced             = 0.00226
    Parcel fate (number, mass)      : patch walls
      - escape                      = 0, 0
      - stick                       = 0, 0
    Parcel fate (number, mass)      : patch outlet
      - escape                      = 0, 0
      - stick                       = 0, 0
    Min cell volume fraction        = 0
    Max cell volume fraction        = 0.0399912
    Min dense number of parcels     = 2

Lookup scheme for interpolate(alpha.water) in dictionary "$FOAM_CASE/system/fvSchemes/interpolationSchemes"
Lookup scheme for interpolate(Dc) in dictionary "$FOAM_CASE/system/fvSchemes/interpolationSchemes"
Lookup scheme for flux(Fd) in dictionary "$FOAM_CASE/system/fvSchemes/interpolationSchemes"
Lookup scheme for grad(U.water) in dictionary "$FOAM_CASE/system/fvSchemes/gradSchemes"
Lookup scheme for flux((-(alpha.water*nuEff.water)*dev2(T(grad(U.water))))) in dictionary "$FOAM_CASE/system/fvSchemes/interpolationSchemes"
Lookup fluxRequired for U.water
Lookup scheme for laplacian((alpha.water*nuEff.water),U.water) in dictionary "$FOAM_CASE/system/fvSchemes/laplacianSchemes"
Lookup fluxRequired for U.water
Lookup scheme for grad(U.water) in dictionary "$FOAM_CASE/system/fvSchemes/gradSchemes"
Lookup scheme for ddt(alpha.water) in dictionary "$FOAM_CASE/system/fvSchemes/ddtSchemes"
Lookup scheme for div(alphaPhi.water,U.water) in dictionary "$FOAM_CASE/system/fvSchemes/divSchemes"
Lookup scheme for grad(U.water) in dictionary "$FOAM_CASE/system/fvSchemes/gradSchemes"
Lookup scheme for ddt(alpha.water,U.water) in dictionary "$FOAM_CASE/system/fvSchemes/ddtSchemes"
Lookup scheme for snGrad(p) in dictionary "$FOAM_CASE/system/fvSchemes/snGradSchemes"
Lookup scheme for grad(p) in dictionary "$FOAM_CASE/system/fvSchemes/gradSchemes"
smoothSolver:  Solving for U.waterx, Initial residual = 0.00924863, Final residual = 7.79673e-07, No Iterations 1
smoothSolver:  Solving for U.watery, Initial residual = 0.0594154, Final residual = 4.87892e-06, No Iterations 1
Lookup scheme for interpolate((1|A(U.water))) in dictionary "$FOAM_CASE/system/fvSchemes/interpolationSchemes"
Lookup scheme for ddt(U.water) in dictionary "$FOAM_CASE/system/fvSchemes/ddtSchemes"
Lookup scheme for dotInterpolate(Sf,((2.18919*U.water_0)-(0.645979*U.water_0_0))) in dictionary "$FOAM_CASE/system/fvSchemes/interpolationSchemes"
Lookup scheme for dotInterpolate(Sf,U.water_0) in dictionary "$FOAM_CASE/system/fvSchemes/interpolationSchemes"
Lookup scheme for flux(HbyA.water) in dictionary "$FOAM_CASE/system/fvSchemes/interpolationSchemes"
Lookup scheme for ddt(alpha.water) in dictionary "$FOAM_CASE/system/fvSchemes/ddtSchemes"
Lookup scheme for laplacian((alphacf*Dp),p) in dictionary "$FOAM_CASE/system/fvSchemes/laplacianSchemes"
Lookup fluxRequired for p
Lookup scheme for grad(p) in dictionary "$FOAM_CASE/system/fvSchemes/gradSchemes"
GAMG:  Solving for p, Initial residual = 0.0162923, Final residual = 5.35707e-07, No Iterations 10
Lookup fluxRequired for p
Lookup fluxRequired for p
ExecutionTime = 4.45897 s  ClockTime = 7 s

Courant Number mean: 0.0176161 max: 0.0580781
deltaT = 0.00145699
Time = 0.0577472s


Solving 2-D cloud cloud
Cloud: cloud
    Current number of parcels       = 7500
    Current mass in system          = 0.00226
    Linear momentum                 = (1.38889e-07 -0.000118359 0)
   |Linear momentum|                = 0.000118359
    Linear kinetic energy           = 3.2269e-06
    model1:
        number of parcels added     = 7500
        mass introduced             = 0.00226
    Parcel fate (number, mass)      : patch walls
      - escape                      = 0, 0
      - stick                       = 0, 0
    Parcel fate (number, mass)      : patch outlet
      - escape                      = 0, 0
      - stick                       = 0, 0
    Min cell volume fraction        = 0
    Max cell volume fraction        = 0.0599867
    Min dense number of parcels     = 3

Lookup scheme for interpolate(alpha.water) in dictionary "$FOAM_CASE/system/fvSchemes/interpolationSchemes"
Lookup scheme for interpolate(Dc) in dictionary "$FOAM_CASE/system/fvSchemes/interpolationSchemes"
Lookup scheme for flux(Fd) in dictionary "$FOAM_CASE/system/fvSchemes/interpolationSchemes"
Lookup scheme for grad(U.water) in dictionary "$FOAM_CASE/system/fvSchemes/gradSchemes"
Lookup scheme for flux((-(alpha.water*nuEff.water)*dev2(T(grad(U.water))))) in dictionary "$FOAM_CASE/system/fvSchemes/interpolationSchemes"
Lookup fluxRequired for U.water
Lookup scheme for laplacian((alpha.water*nuEff.water),U.water) in dictionary "$FOAM_CASE/system/fvSchemes/laplacianSchemes"
Lookup fluxRequired for U.water
Lookup scheme for grad(U.water) in dictionary "$FOAM_CASE/system/fvSchemes/gradSchemes"
Lookup scheme for ddt(alpha.water) in dictionary "$FOAM_CASE/system/fvSchemes/ddtSchemes"
Lookup scheme for div(alphaPhi.water,U.water) in dictionary "$FOAM_CASE/system/fvSchemes/divSchemes"
Lookup scheme for grad(U.water) in dictionary "$FOAM_CASE/system/fvSchemes/gradSchemes"
Lookup scheme for ddt(alpha.water,U.water) in dictionary "$FOAM_CASE/system/fvSchemes/ddtSchemes"
Lookup scheme for snGrad(p) in dictionary "$FOAM_CASE/system/fvSchemes/snGradSchemes"
Lookup scheme for grad(p) in dictionary "$FOAM_CASE/system/fvSchemes/gradSchemes"
smoothSolver:  Solving for U.waterx, Initial residual = 0.0104518, Final residual = 1.14733e-06, No Iterations 1
smoothSolver:  Solving for U.watery, Initial residual = 0.0754624, Final residual = 8.47242e-06, No Iterations 1
Lookup scheme for interpolate((1|A(U.water))) in dictionary "$FOAM_CASE/system/fvSchemes/interpolationSchemes"
Lookup scheme for ddt(U.water) in dictionary "$FOAM_CASE/system/fvSchemes/ddtSchemes"
Lookup scheme for dotInterpolate(Sf,((2.2*U.water_0)-(0.654545*U.water_0_0))) in dictionary "$FOAM_CASE/system/fvSchemes/interpolationSchemes"
Lookup scheme for dotInterpolate(Sf,U.water_0) in dictionary "$FOAM_CASE/system/fvSchemes/interpolationSchemes"
Lookup scheme for flux(HbyA.water) in dictionary "$FOAM_CASE/system/fvSchemes/interpolationSchemes"
Lookup scheme for ddt(alpha.water) in dictionary "$FOAM_CASE/system/fvSchemes/ddtSchemes"
Lookup scheme for laplacian((alphacf*Dp),p) in dictionary "$FOAM_CASE/system/fvSchemes/laplacianSchemes"
Lookup fluxRequired for p
Lookup scheme for grad(p) in dictionary "$FOAM_CASE/system/fvSchemes/gradSchemes"
GAMG:  Solving for p, Initial residual = 0.150418, Final residual = 8.76125e-07, No Iterations 12
Lookup fluxRequired for p
Lookup fluxRequired for p
ExecutionTime = 4.81312 s  ClockTime = 8 s

Courant Number mean: 0.0222548 max: 0.0698882
deltaT = 0.00169011
Time = 0.0594373s


Solving 2-D cloud cloud
Cloud: cloud
    Current number of parcels       = 7500
    Current mass in system          = 0.00226
    Linear momentum                 = (1.74416e-07 -0.000112475 0)
   |Linear momentum|                = 0.000112475
    Linear kinetic energy           = 2.9282e-06
    model1:
        number of parcels added     = 7500
        mass introduced             = 0.00226
    Parcel fate (number, mass)      : patch walls
      - escape                      = 0, 0
      - stick                       = 0, 0
    Parcel fate (number, mass)      : patch outlet
      - escape                      = 0, 0
      - stick                       = 0, 0
    Min cell volume fraction        = 0
    Max cell volume fraction        = 0.0599867
    Min dense number of parcels     = 3

Lookup scheme for interpolate(alpha.water) in dictionary "$FOAM_CASE/system/fvSchemes/interpolationSchemes"
Lookup scheme for interpolate(Dc) in dictionary "$FOAM_CASE/system/fvSchemes/interpolationSchemes"
Lookup scheme for flux(Fd) in dictionary "$FOAM_CASE/system/fvSchemes/interpolationSchemes"
Lookup scheme for grad(U.water) in dictionary "$FOAM_CASE/system/fvSchemes/gradSchemes"
Lookup scheme for flux((-(alpha.water*nuEff.water)*dev2(T(grad(U.water))))) in dictionary "$FOAM_CASE/system/fvSchemes/interpolationSchemes"
Lookup fluxRequired for U.water
Lookup scheme for laplacian((alpha.water*nuEff.water),U.water) in dictionary "$FOAM_CASE/system/fvSchemes/laplacianSchemes"
Lookup fluxRequired for U.water
Lookup scheme for grad(U.water) in dictionary "$FOAM_CASE/system/fvSchemes/gradSchemes"
Lookup scheme for ddt(alpha.water) in dictionary "$FOAM_CASE/system/fvSchemes/ddtSchemes"
Lookup scheme for div(alphaPhi.water,U.water) in dictionary "$FOAM_CASE/system/fvSchemes/divSchemes"
Lookup scheme for grad(U.water) in dictionary "$FOAM_CASE/system/fvSchemes/gradSchemes"
Lookup scheme for ddt(alpha.water,U.water) in dictionary "$FOAM_CASE/system/fvSchemes/ddtSchemes"
Lookup scheme for snGrad(p) in dictionary "$FOAM_CASE/system/fvSchemes/snGradSchemes"
Lookup scheme for grad(p) in dictionary "$FOAM_CASE/system/fvSchemes/gradSchemes"
smoothSolver:  Solving for U.waterx, Initial residual = 0.167884, Final residual = 8.86509e-08, No Iterations 2
smoothSolver:  Solving for U.watery, Initial residual = 0.132605, Final residual = 7.4043e-08, No Iterations 2
Lookup scheme for interpolate((1|A(U.water))) in dictionary "$FOAM_CASE/system/fvSchemes/interpolationSchemes"
Lookup scheme for ddt(U.water) in dictionary "$FOAM_CASE/system/fvSchemes/ddtSchemes"
Lookup scheme for dotInterpolate(Sf,((2.16*U.water_0)-(0.622963*U.water_0_0))) in dictionary "$FOAM_CASE/system/fvSchemes/interpolationSchemes"
Lookup scheme for dotInterpolate(Sf,U.water_0) in dictionary "$FOAM_CASE/system/fvSchemes/interpolationSchemes"
Lookup scheme for flux(HbyA.water) in dictionary "$FOAM_CASE/system/fvSchemes/interpolationSchemes"
Lookup scheme for ddt(alpha.water) in dictionary "$FOAM_CASE/system/fvSchemes/ddtSchemes"
Lookup scheme for laplacian((alphacf*Dp),p) in dictionary "$FOAM_CASE/system/fvSchemes/laplacianSchemes"
Lookup fluxRequired for p
Lookup scheme for grad(p) in dictionary "$FOAM_CASE/system/fvSchemes/gradSchemes"
GAMG:  Solving for p, Initial residual = 0.352953, Final residual = 9.52912e-07, No Iterations 13
Lookup fluxRequired for p
Lookup fluxRequired for p
ExecutionTime = 5.17135 s  ClockTime = 8 s

Courant Number mean: 0.0219772 max: 0.101053
deltaT = 0.00162251
Time = 0.0610598s


Solving 2-D cloud cloud
Cloud: cloud
    Current number of parcels       = 7500
    Current mass in system          = 0.00226
    Linear momentum                 = (1.66201e-07 -0.000102384 0)
   |Linear momentum|                = 0.000102384
    Linear kinetic energy           = 2.43889e-06
    model1:
        number of parcels added     = 7500
        mass introduced             = 0.00226
    Parcel fate (number, mass)      : patch walls
      - escape                      = 0, 0
      - stick                       = 0, 0
    Parcel fate (number, mass)      : patch outlet
      - escape                      = 0, 0
      - stick                       = 0, 0
    Min cell volume fraction        = 0
    Max cell volume fraction        = 0.0599867
    Min dense number of parcels     = 3

Lookup scheme for interpolate(alpha.water) in dictionary "$FOAM_CASE/system/fvSchemes/interpolationSchemes"
Lookup scheme for interpolate(Dc) in dictionary "$FOAM_CASE/system/fvSchemes/interpolationSchemes"
Lookup scheme for flux(Fd) in dictionary "$FOAM_CASE/system/fvSchemes/interpolationSchemes"
Lookup scheme for grad(U.water) in dictionary "$FOAM_CASE/system/fvSchemes/gradSchemes"
Lookup scheme for flux((-(alpha.water*nuEff.water)*dev2(T(grad(U.water))))) in dictionary "$FOAM_CASE/system/fvSchemes/interpolationSchemes"
Lookup fluxRequired for U.water
Lookup scheme for laplacian((alpha.water*nuEff.water),U.water) in dictionary "$FOAM_CASE/system/fvSchemes/laplacianSchemes"
Lookup fluxRequired for U.water
Lookup scheme for grad(U.water) in dictionary "$FOAM_CASE/system/fvSchemes/gradSchemes"
Lookup scheme for ddt(alpha.water) in dictionary "$FOAM_CASE/system/fvSchemes/ddtSchemes"
Lookup scheme for div(alphaPhi.water,U.water) in dictionary "$FOAM_CASE/system/fvSchemes/divSchemes"
Lookup scheme for grad(U.water) in dictionary "$FOAM_CASE/system/fvSchemes/gradSchemes"
Lookup scheme for ddt(alpha.water,U.water) in dictionary "$FOAM_CASE/system/fvSchemes/ddtSchemes"
Lookup scheme for snGrad(p) in dictionary "$FOAM_CASE/system/fvSchemes/snGradSchemes"
Lookup scheme for grad(p) in dictionary "$FOAM_CASE/system/fvSchemes/gradSchemes"
smoothSolver:  Solving for U.waterx, Initial residual = 0.346454, Final residual = 5.69453e-08, No Iterations 2
smoothSolver:  Solving for U.watery, Initial residual = 0.444033, Final residual = 9.71262e-08, No Iterations 2
Lookup scheme for interpolate((1|A(U.water))) in dictionary "$FOAM_CASE/system/fvSchemes/interpolationSchemes"
Lookup scheme for ddt(U.water) in dictionary "$FOAM_CASE/system/fvSchemes/ddtSchemes"
Lookup scheme for dotInterpolate(Sf,((1.96*U.water_0)-(0.470204*U.water_0_0))) in dictionary "$FOAM_CASE/system/fvSchemes/interpolationSchemes"
Lookup scheme for dotInterpolate(Sf,U.water_0) in dictionary "$FOAM_CASE/system/fvSchemes/interpolationSchemes"
Lookup scheme for flux(HbyA.water) in dictionary "$FOAM_CASE/system/fvSchemes/interpolationSchemes"
Lookup scheme for ddt(alpha.water) in dictionary "$FOAM_CASE/system/fvSchemes/ddtSchemes"
Lookup scheme for laplacian((alphacf*Dp),p) in dictionary "$FOAM_CASE/system/fvSchemes/laplacianSchemes"
Lookup fluxRequired for p
Lookup scheme for grad(p) in dictionary "$FOAM_CASE/system/fvSchemes/gradSchemes"
GAMG:  Solving for p, Initial residual = 0.349716, Final residual = 6.94328e-07, No Iterations 14
Lookup fluxRequired for p
Lookup fluxRequired for p
ExecutionTime = 5.53042 s  ClockTime = 9 s

Courant Number mean: 0.032428 max: 0.0726196
deltaT = 0.00194701
Time = 0.0630068s


Solving 2-D cloud cloud
Cloud: cloud
    Current number of parcels       = 7500
    Current mass in system          = 0.00226
    Linear momentum                 = (1.7621e-07 -0.000100906 0)
   |Linear momentum|                = 0.000100906
    Linear kinetic energy           = 2.37294e-06
    model1:
        number of parcels added     = 7500
        mass introduced             = 0.00226
    Parcel fate (number, mass)      : patch walls
      - escape                      = 0, 0
      - stick                       = 0, 0
    Parcel fate (number, mass)      : patch outlet
      - escape                      = 0, 0
      - stick                       = 0, 0
    Min cell volume fraction        = 0
    Max cell volume fraction        = 0.0599867
    Min dense number of parcels     = 3

Lookup scheme for interpolate(alpha.water) in dictionary "$FOAM_CASE/system/fvSchemes/interpolationSchemes"
Lookup scheme for interpolate(Dc) in dictionary "$FOAM_CASE/system/fvSchemes/interpolationSchemes"
Lookup scheme for flux(Fd) in dictionary "$FOAM_CASE/system/fvSchemes/interpolationSchemes"
Lookup scheme for grad(U.water) in dictionary "$FOAM_CASE/system/fvSchemes/gradSchemes"
Lookup scheme for flux((-(alpha.water*nuEff.water)*dev2(T(grad(U.water))))) in dictionary "$FOAM_CASE/system/fvSchemes/interpolationSchemes"
Lookup fluxRequired for U.water
Lookup scheme for laplacian((alpha.water*nuEff.water),U.water) in dictionary "$FOAM_CASE/system/fvSchemes/laplacianSchemes"
Lookup fluxRequired for U.water
Lookup scheme for grad(U.water) in dictionary "$FOAM_CASE/system/fvSchemes/gradSchemes"
Lookup scheme for ddt(alpha.water) in dictionary "$FOAM_CASE/system/fvSchemes/ddtSchemes"
Lookup scheme for div(alphaPhi.water,U.water) in dictionary "$FOAM_CASE/system/fvSchemes/divSchemes"
Lookup scheme for grad(U.water) in dictionary "$FOAM_CASE/system/fvSchemes/gradSchemes"
Lookup scheme for ddt(alpha.water,U.water) in dictionary "$FOAM_CASE/system/fvSchemes/ddtSchemes"
Lookup scheme for snGrad(p) in dictionary "$FOAM_CASE/system/fvSchemes/snGradSchemes"
Lookup scheme for grad(p) in dictionary "$FOAM_CASE/system/fvSchemes/gradSchemes"
smoothSolver:  Solving for U.waterx, Initial residual = 0.43466, Final residual = 2.41392e-07, No Iterations 2
smoothSolver:  Solving for U.watery, Initial residual = 0.667505, Final residual = 6.10014e-07, No Iterations 2
Lookup scheme for interpolate((1|A(U.water))) in dictionary "$FOAM_CASE/system/fvSchemes/interpolationSchemes"
Lookup scheme for ddt(U.water) in dictionary "$FOAM_CASE/system/fvSchemes/ddtSchemes"
Lookup scheme for dotInterpolate(Sf,((2.2*U.water_0)-(0.654545*U.water_0_0))) in dictionary "$FOAM_CASE/system/fvSchemes/interpolationSchemes"
Lookup scheme for dotInterpolate(Sf,U.water_0) in dictionary "$FOAM_CASE/system/fvSchemes/interpolationSchemes"
Lookup scheme for flux(HbyA.water) in dictionary "$FOAM_CASE/system/fvSchemes/interpolationSchemes"
Lookup scheme for ddt(alpha.water) in dictionary "$FOAM_CASE/system/fvSchemes/ddtSchemes"
Lookup scheme for laplacian((alphacf*Dp),p) in dictionary "$FOAM_CASE/system/fvSchemes/laplacianSchemes"
Lookup fluxRequired for p
Lookup scheme for grad(p) in dictionary "$FOAM_CASE/system/fvSchemes/gradSchemes"
GAMG:  Solving for p, Initial residual = 0.603667, Final residual = 6.10003e-07, No Iterations 15
Lookup fluxRequired for p
Lookup fluxRequired for p
ExecutionTime = 5.88954 s  ClockTime = 9 s

Courant Number mean: 0.037862 max: 0.0859033
deltaT = 0.00217607
Time = 0.0651829s


Solving 2-D cloud cloud
Cloud: cloud
    Current number of parcels       = 7500
    Current mass in system          = 0.00226
    Linear momentum                 = (1.76414e-07 -9.85183e-05 0)
   |Linear momentum|                = 9.85184e-05
    Linear kinetic energy           = 2.26518e-06
    model1:
        number of parcels added     = 7500
        mass introduced             = 0.00226
    Parcel fate (number, mass)      : patch walls
      - escape                      = 0, 0
      - stick                       = 0, 0
    Parcel fate (number, mass)      : patch outlet
      - escape                      = 0, 0
      - stick                       = 0, 0
    Min cell volume fraction        = 0
    Max cell volume fraction        = 0.0599867
    Min dense number of parcels     = 3

Lookup scheme for interpolate(alpha.water) in dictionary "$FOAM_CASE/system/fvSchemes/interpolationSchemes"
Lookup scheme for interpolate(Dc) in dictionary "$FOAM_CASE/system/fvSchemes/interpolationSchemes"
Lookup scheme for flux(Fd) in dictionary "$FOAM_CASE/system/fvSchemes/interpolationSchemes"
Lookup scheme for grad(U.water) in dictionary "$FOAM_CASE/system/fvSchemes/gradSchemes"
Lookup scheme for flux((-(alpha.water*nuEff.water)*dev2(T(grad(U.water))))) in dictionary "$FOAM_CASE/system/fvSchemes/interpolationSchemes"
Lookup fluxRequired for U.water
Lookup scheme for laplacian((alpha.water*nuEff.water),U.water) in dictionary "$FOAM_CASE/system/fvSchemes/laplacianSchemes"
Lookup fluxRequired for U.water
Lookup scheme for grad(U.water) in dictionary "$FOAM_CASE/system/fvSchemes/gradSchemes"
Lookup scheme for ddt(alpha.water) in dictionary "$FOAM_CASE/system/fvSchemes/ddtSchemes"
Lookup scheme for div(alphaPhi.water,U.water) in dictionary "$FOAM_CASE/system/fvSchemes/divSchemes"
Lookup scheme for grad(U.water) in dictionary "$FOAM_CASE/system/fvSchemes/gradSchemes"
Lookup scheme for ddt(alpha.water,U.water) in dictionary "$FOAM_CASE/system/fvSchemes/ddtSchemes"
Lookup scheme for snGrad(p) in dictionary "$FOAM_CASE/system/fvSchemes/snGradSchemes"
Lookup scheme for grad(p) in dictionary "$FOAM_CASE/system/fvSchemes/gradSchemes"
smoothSolver:  Solving for U.waterx, Initial residual = 0.339343, Final residual = 1.90946e-07, No Iterations 2
smoothSolver:  Solving for U.watery, Initial residual = 0.384828, Final residual = 3.53693e-07, No Iterations 2
Lookup scheme for interpolate((1|A(U.water))) in dictionary "$FOAM_CASE/system/fvSchemes/interpolationSchemes"
Lookup scheme for ddt(U.water) in dictionary "$FOAM_CASE/system/fvSchemes/ddtSchemes"
Lookup scheme for dotInterpolate(Sf,((2.11765*U.water_0)-(0.589869*U.water_0_0))) in dictionary "$FOAM_CASE/system/fvSchemes/interpolationSchemes"
Lookup scheme for dotInterpolate(Sf,U.water_0) in dictionary "$FOAM_CASE/system/fvSchemes/interpolationSchemes"
Lookup scheme for flux(HbyA.water) in dictionary "$FOAM_CASE/system/fvSchemes/interpolationSchemes"
Lookup scheme for ddt(alpha.water) in dictionary "$FOAM_CASE/system/fvSchemes/ddtSchemes"
Lookup scheme for laplacian((alphacf*Dp),p) in dictionary "$FOAM_CASE/system/fvSchemes/laplacianSchemes"
Lookup fluxRequired for p
Lookup scheme for grad(p) in dictionary "$FOAM_CASE/system/fvSchemes/gradSchemes"
GAMG:  Solving for p, Initial residual = 0.225506, Final residual = 7.05545e-07, No Iterations 13
Lookup fluxRequired for p
Lookup fluxRequired for p
ExecutionTime = 6.24764 s  ClockTime = 9 s

Courant Number mean: 0.0433653 max: 0.0950691
deltaT = 0.00217607
Time = 0.067359s


Solving 2-D cloud cloud
Cloud: cloud
    Current number of parcels       = 7500
    Current mass in system          = 0.00226
    Linear momentum                 = (2.06659e-07 -9.82651e-05 0)
   |Linear momentum|                = 9.82653e-05
    Linear kinetic energy           = 2.26402e-06
    model1:
        number of parcels added     = 7500
        mass introduced             = 0.00226
    Parcel fate (number, mass)      : patch walls
      - escape                      = 0, 0
      - stick                       = 0, 0
    Parcel fate (number, mass)      : patch outlet
      - escape                      = 0, 0
      - stick                       = 0, 0
    Min cell volume fraction        = 0
    Max cell volume fraction        = 0.0599867
    Min dense number of parcels     = 3

Lookup scheme for interpolate(alpha.water) in dictionary "$FOAM_CASE/system/fvSchemes/interpolationSchemes"
Lookup scheme for interpolate(Dc) in dictionary "$FOAM_CASE/system/fvSchemes/interpolationSchemes"
Lookup scheme for flux(Fd) in dictionary "$FOAM_CASE/system/fvSchemes/interpolationSchemes"
Lookup scheme for grad(U.water) in dictionary "$FOAM_CASE/system/fvSchemes/gradSchemes"
Lookup scheme for flux((-(alpha.water*nuEff.water)*dev2(T(grad(U.water))))) in dictionary "$FOAM_CASE/system/fvSchemes/interpolationSchemes"
Lookup fluxRequired for U.water
Lookup scheme for laplacian((alpha.water*nuEff.water),U.water) in dictionary "$FOAM_CASE/system/fvSchemes/laplacianSchemes"
Lookup fluxRequired for U.water
Lookup scheme for grad(U.water) in dictionary "$FOAM_CASE/system/fvSchemes/gradSchemes"
Lookup scheme for ddt(alpha.water) in dictionary "$FOAM_CASE/system/fvSchemes/ddtSchemes"
Lookup scheme for div(alphaPhi.water,U.water) in dictionary "$FOAM_CASE/system/fvSchemes/divSchemes"
Lookup scheme for grad(U.water) in dictionary "$FOAM_CASE/system/fvSchemes/gradSchemes"
Lookup scheme for ddt(alpha.water,U.water) in dictionary "$FOAM_CASE/system/fvSchemes/ddtSchemes"
Lookup scheme for snGrad(p) in dictionary "$FOAM_CASE/system/fvSchemes/snGradSchemes"
Lookup scheme for grad(p) in dictionary "$FOAM_CASE/system/fvSchemes/gradSchemes"
smoothSolver:  Solving for U.waterx, Initial residual = 0.172423, Final residual = 1.6789e-07, No Iterations 2
smoothSolver:  Solving for U.watery, Initial residual = 0.140615, Final residual = 1.30494e-07, No Iterations 2
Lookup scheme for interpolate((1|A(U.water))) in dictionary "$FOAM_CASE/system/fvSchemes/interpolationSchemes"
Lookup scheme for ddt(U.water) in dictionary "$FOAM_CASE/system/fvSchemes/ddtSchemes"
Lookup scheme for dotInterpolate(Sf,((2*U.water_0)-(0.5*U.water_0_0))) in dictionary "$FOAM_CASE/system/fvSchemes/interpolationSchemes"
Lookup scheme for dotInterpolate(Sf,U.water_0) in dictionary "$FOAM_CASE/system/fvSchemes/interpolationSchemes"
Lookup scheme for flux(HbyA.water) in dictionary "$FOAM_CASE/system/fvSchemes/interpolationSchemes"
Lookup scheme for ddt(alpha.water) in dictionary "$FOAM_CASE/system/fvSchemes/ddtSchemes"
Lookup scheme for laplacian((alphacf*Dp),p) in dictionary "$FOAM_CASE/system/fvSchemes/laplacianSchemes"
Lookup fluxRequired for p
Lookup scheme for grad(p) in dictionary "$FOAM_CASE/system/fvSchemes/gradSchemes"
GAMG:  Solving for p, Initial residual = 0.155639, Final residual = 6.5694e-07, No Iterations 12
Lookup fluxRequired for p
Lookup fluxRequired for p
ExecutionTime = 6.60117 s  ClockTime = 10 s

Courant Number mean: 0.0431185 max: 0.0942849
deltaT = 0.00217607
Time = 0.069535s


Solving 2-D cloud cloud
Cloud: cloud
    Current number of parcels       = 7500
    Current mass in system          = 0.00226
    Linear momentum                 = (2.18528e-07 -0.000101329 0)
   |Linear momentum|                = 0.000101329
    Linear kinetic energy           = 2.4193e-06
    model1:
        number of parcels added     = 7500
        mass introduced             = 0.00226
    Parcel fate (number, mass)      : patch walls
      - escape                      = 0, 0
      - stick                       = 0, 0
    Parcel fate (number, mass)      : patch outlet
      - escape                      = 0, 0
      - stick                       = 0, 0
    Min cell volume fraction        = 0
    Max cell volume fraction        = 0.0599867
    Min dense number of parcels     = 3

Lookup scheme for interpolate(alpha.water) in dictionary "$FOAM_CASE/system/fvSchemes/interpolationSchemes"
Lookup scheme for interpolate(Dc) in dictionary "$FOAM_CASE/system/fvSchemes/interpolationSchemes"
Lookup scheme for flux(Fd) in dictionary "$FOAM_CASE/system/fvSchemes/interpolationSchemes"
Lookup scheme for grad(U.water) in dictionary "$FOAM_CASE/system/fvSchemes/gradSchemes"
Lookup scheme for flux((-(alpha.water*nuEff.water)*dev2(T(grad(U.water))))) in dictionary "$FOAM_CASE/system/fvSchemes/interpolationSchemes"
Lookup fluxRequired for U.water
Lookup scheme for laplacian((alpha.water*nuEff.water),U.water) in dictionary "$FOAM_CASE/system/fvSchemes/laplacianSchemes"
Lookup fluxRequired for U.water
Lookup scheme for grad(U.water) in dictionary "$FOAM_CASE/system/fvSchemes/gradSchemes"
Lookup scheme for ddt(alpha.water) in dictionary "$FOAM_CASE/system/fvSchemes/ddtSchemes"
Lookup scheme for div(alphaPhi.water,U.water) in dictionary "$FOAM_CASE/system/fvSchemes/divSchemes"
Lookup scheme for grad(U.water) in dictionary "$FOAM_CASE/system/fvSchemes/gradSchemes"
Lookup scheme for ddt(alpha.water,U.water) in dictionary "$FOAM_CASE/system/fvSchemes/ddtSchemes"
Lookup scheme for snGrad(p) in dictionary "$FOAM_CASE/system/fvSchemes/snGradSchemes"
Lookup scheme for grad(p) in dictionary "$FOAM_CASE/system/fvSchemes/gradSchemes"
smoothSolver:  Solving for U.waterx, Initial residual = 0.0869333, Final residual = 7.29542e-08, No Iterations 2
smoothSolver:  Solving for U.watery, Initial residual = 0.0517083, Final residual = 3.30305e-08, No Iterations 2
Lookup scheme for interpolate((1|A(U.water))) in dictionary "$FOAM_CASE/system/fvSchemes/interpolationSchemes"
Lookup scheme for ddt(U.water) in dictionary "$FOAM_CASE/system/fvSchemes/ddtSchemes"
Lookup scheme for dotInterpolate(Sf,((2*U.water_0)-(0.5*U.water_0_0))) in dictionary "$FOAM_CASE/system/fvSchemes/interpolationSchemes"
Lookup scheme for dotInterpolate(Sf,U.water_0) in dictionary "$FOAM_CASE/system/fvSchemes/interpolationSchemes"
Lookup scheme for flux(HbyA.water) in dictionary "$FOAM_CASE/system/fvSchemes/interpolationSchemes"
Lookup scheme for ddt(alpha.water) in dictionary "$FOAM_CASE/system/fvSchemes/ddtSchemes"
Lookup scheme for laplacian((alphacf*Dp),p) in dictionary "$FOAM_CASE/system/fvSchemes/laplacianSchemes"
Lookup fluxRequired for p
Lookup scheme for grad(p) in dictionary "$FOAM_CASE/system/fvSchemes/gradSchemes"
GAMG:  Solving for p, Initial residual = 0.0602456, Final residual = 7.8654e-07, No Iterations 10
Lookup fluxRequired for p
Lookup fluxRequired for p
ExecutionTime = 6.95783 s  ClockTime = 10 s

Courant Number mean: 0.0427834 max: 0.0919346
deltaT = 0.00234346
Time = 0.0718785s


Solving 2-D cloud cloud
Cloud: cloud
    Current number of parcels       = 7500
    Current mass in system          = 0.00226
    Linear momentum                 = (1.88655e-07 -0.000105954 0)
   |Linear momentum|                = 0.000105954
    Linear kinetic energy           = 2.64109e-06
    model1:
        number of parcels added     = 7500
        mass introduced             = 0.00226
    Parcel fate (number, mass)      : patch walls
      - escape                      = 0, 0
      - stick                       = 0, 0
    Parcel fate (number, mass)      : patch outlet
      - escape                      = 0, 0
      - stick                       = 0, 0
    Min cell volume fraction        = 0
    Max cell volume fraction        = 0.0599867
    Min dense number of parcels     = 3

Lookup scheme for interpolate(alpha.water) in dictionary "$FOAM_CASE/system/fvSchemes/interpolationSchemes"
Lookup scheme for interpolate(Dc) in dictionary "$FOAM_CASE/system/fvSchemes/interpolationSchemes"
Lookup scheme for flux(Fd) in dictionary "$FOAM_CASE/system/fvSchemes/interpolationSchemes"
Lookup scheme for grad(U.water) in dictionary "$FOAM_CASE/system/fvSchemes/gradSchemes"
Lookup scheme for flux((-(alpha.water*nuEff.water)*dev2(T(grad(U.water))))) in dictionary "$FOAM_CASE/system/fvSchemes/interpolationSchemes"
Lookup fluxRequired for U.water
Lookup scheme for laplacian((alpha.water*nuEff.water),U.water) in dictionary "$FOAM_CASE/system/fvSchemes/laplacianSchemes"
Lookup fluxRequired for U.water
Lookup scheme for grad(U.water) in dictionary "$FOAM_CASE/system/fvSchemes/gradSchemes"
Lookup scheme for ddt(alpha.water) in dictionary "$FOAM_CASE/system/fvSchemes/ddtSchemes"
Lookup scheme for div(alphaPhi.water,U.water) in dictionary "$FOAM_CASE/system/fvSchemes/divSchemes"
Lookup scheme for grad(U.water) in dictionary "$FOAM_CASE/system/fvSchemes/gradSchemes"
Lookup scheme for ddt(alpha.water,U.water) in dictionary "$FOAM_CASE/system/fvSchemes/ddtSchemes"
Lookup scheme for snGrad(p) in dictionary "$FOAM_CASE/system/fvSchemes/snGradSchemes"
Lookup scheme for grad(p) in dictionary "$FOAM_CASE/system/fvSchemes/gradSchemes"
smoothSolver:  Solving for U.waterx, Initial residual = 0.0663316, Final residual = 6.25151e-08, No Iterations 2
smoothSolver:  Solving for U.watery, Initial residual = 0.0395924, Final residual = 2.62292e-08, No Iterations 2
Lookup scheme for interpolate((1|A(U.water))) in dictionary "$FOAM_CASE/system/fvSchemes/interpolationSchemes"
Lookup scheme for ddt(U.water) in dictionary "$FOAM_CASE/system/fvSchemes/ddtSchemes"
Lookup scheme for dotInterpolate(Sf,((2.07692*U.water_0)-(0.558405*U.water_0_0))) in dictionary "$FOAM_CASE/system/fvSchemes/interpolationSchemes"
Lookup scheme for dotInterpolate(Sf,U.water_0) in dictionary "$FOAM_CASE/system/fvSchemes/interpolationSchemes"
Lookup scheme for flux(HbyA.water) in dictionary "$FOAM_CASE/system/fvSchemes/interpolationSchemes"
Lookup scheme for ddt(alpha.water) in dictionary "$FOAM_CASE/system/fvSchemes/ddtSchemes"
Lookup scheme for laplacian((alphacf*Dp),p) in dictionary "$FOAM_CASE/system/fvSchemes/laplacianSchemes"
Lookup fluxRequired for p
Lookup scheme for grad(p) in dictionary "$FOAM_CASE/system/fvSchemes/gradSchemes"
GAMG:  Solving for p, Initial residual = 0.0350717, Final residual = 6.90309e-07, No Iterations 11
Lookup fluxRequired for p
Lookup fluxRequired for p
ExecutionTime = 7.31649 s  ClockTime = 10 s

Courant Number mean: 0.0477546 max: 0.100364
deltaT = 0.00216319
Time = 0.0740417s


Solving 2-D cloud cloud
Cloud: cloud
    Current number of parcels       = 7500
    Current mass in system          = 0.00226
    Linear momentum                 = (1.88178e-07 -0.000109342 0)
   |Linear momentum|                = 0.000109342
    Linear kinetic energy           = 2.797e-06
    model1:
        number of parcels added     = 7500
        mass introduced             = 0.00226
    Parcel fate (number, mass)      : patch walls
      - escape                      = 0, 0
      - stick                       = 0, 0
    Parcel fate (number, mass)      : patch outlet
      - escape                      = 0, 0
      - stick                       = 0, 0
    Min cell volume fraction        = 0
    Max cell volume fraction        = 0.0599867
    Min dense number of parcels     = 3

Lookup scheme for interpolate(alpha.water) in dictionary "$FOAM_CASE/system/fvSchemes/interpolationSchemes"
Lookup scheme for interpolate(Dc) in dictionary "$FOAM_CASE/system/fvSchemes/interpolationSchemes"
Lookup scheme for flux(Fd) in dictionary "$FOAM_CASE/system/fvSchemes/interpolationSchemes"
Lookup scheme for grad(U.water) in dictionary "$FOAM_CASE/system/fvSchemes/gradSchemes"
Lookup scheme for flux((-(alpha.water*nuEff.water)*dev2(T(grad(U.water))))) in dictionary "$FOAM_CASE/system/fvSchemes/interpolationSchemes"
Lookup fluxRequired for U.water
Lookup scheme for laplacian((alpha.water*nuEff.water),U.water) in dictionary "$FOAM_CASE/system/fvSchemes/laplacianSchemes"
Lookup fluxRequired for U.water
Lookup scheme for grad(U.water) in dictionary "$FOAM_CASE/system/fvSchemes/gradSchemes"
Lookup scheme for ddt(alpha.water) in dictionary "$FOAM_CASE/system/fvSchemes/ddtSchemes"
Lookup scheme for div(alphaPhi.water,U.water) in dictionary "$FOAM_CASE/system/fvSchemes/divSchemes"
Lookup scheme for grad(U.water) in dictionary "$FOAM_CASE/system/fvSchemes/gradSchemes"
Lookup scheme for ddt(alpha.water,U.water) in dictionary "$FOAM_CASE/system/fvSchemes/ddtSchemes"
Lookup scheme for snGrad(p) in dictionary "$FOAM_CASE/system/fvSchemes/snGradSchemes"
Lookup scheme for grad(p) in dictionary "$FOAM_CASE/system/fvSchemes/gradSchemes"
smoothSolver:  Solving for U.waterx, Initial residual = 0.0490407, Final residual = 3.2554e-08, No Iterations 2
smoothSolver:  Solving for U.watery, Initial residual = 0.0816595, Final residual = 5.74589e-08, No Iterations 2
Lookup scheme for interpolate((1|A(U.water))) in dictionary "$FOAM_CASE/system/fvSchemes/interpolationSchemes"
Lookup scheme for ddt(U.water) in dictionary "$FOAM_CASE/system/fvSchemes/ddtSchemes"
Lookup scheme for dotInterpolate(Sf,((1.92308*U.water_0)-(0.443077*U.water_0_0))) in dictionary "$FOAM_CASE/system/fvSchemes/interpolationSchemes"
Lookup scheme for dotInterpolate(Sf,U.water_0) in dictionary "$FOAM_CASE/system/fvSchemes/interpolationSchemes"
Lookup scheme for flux(HbyA.water) in dictionary "$FOAM_CASE/system/fvSchemes/interpolationSchemes"
Lookup scheme for ddt(alpha.water) in dictionary "$FOAM_CASE/system/fvSchemes/ddtSchemes"
Lookup scheme for laplacian((alphacf*Dp),p) in dictionary "$FOAM_CASE/system/fvSchemes/laplacianSchemes"
Lookup fluxRequired for p
Lookup scheme for grad(p) in dictionary "$FOAM_CASE/system/fvSchemes/gradSchemes"
GAMG:  Solving for p, Initial residual = 0.0329017, Final residual = 5.76329e-07, No Iterations 12
Lookup fluxRequired for p
Lookup fluxRequired for p
ExecutionTime = 7.67479 s  ClockTime = 11 s

Courant Number mean: 0.0422966 max: 0.0997517
deltaT = 0.00216319
Time = 0.0762049s


Solving 2-D cloud cloud
Cloud: cloud
    Current number of parcels       = 7500
    Current mass in system          = 0.00226
    Linear momentum                 = (2.0254e-07 -0.000110038 0)
   |Linear momentum|                = 0.000110038
    Linear kinetic energy           = 2.81902e-06
    model1:
        number of parcels added     = 7500
        mass introduced             = 0.00226
    Parcel fate (number, mass)      : patch walls
      - escape                      = 0, 0
      - stick                       = 0, 0
    Parcel fate (number, mass)      : patch outlet
      - escape                      = 0, 0
      - stick                       = 0, 0
    Min cell volume fraction        = 0
    Max cell volume fraction        = 0.0799823
    Min dense number of parcels     = 4

Lookup scheme for interpolate(alpha.water) in dictionary "$FOAM_CASE/system/fvSchemes/interpolationSchemes"
Lookup scheme for interpolate(Dc) in dictionary "$FOAM_CASE/system/fvSchemes/interpolationSchemes"
Lookup scheme for flux(Fd) in dictionary "$FOAM_CASE/system/fvSchemes/interpolationSchemes"
Lookup scheme for grad(U.water) in dictionary "$FOAM_CASE/system/fvSchemes/gradSchemes"
Lookup scheme for flux((-(alpha.water*nuEff.water)*dev2(T(grad(U.water))))) in dictionary "$FOAM_CASE/system/fvSchemes/interpolationSchemes"
Lookup fluxRequired for U.water
Lookup scheme for laplacian((alpha.water*nuEff.water),U.water) in dictionary "$FOAM_CASE/system/fvSchemes/laplacianSchemes"
Lookup fluxRequired for U.water
Lookup scheme for grad(U.water) in dictionary "$FOAM_CASE/system/fvSchemes/gradSchemes"
Lookup scheme for ddt(alpha.water) in dictionary "$FOAM_CASE/system/fvSchemes/ddtSchemes"
Lookup scheme for div(alphaPhi.water,U.water) in dictionary "$FOAM_CASE/system/fvSchemes/divSchemes"
Lookup scheme for grad(U.water) in dictionary "$FOAM_CASE/system/fvSchemes/gradSchemes"
Lookup scheme for ddt(alpha.water,U.water) in dictionary "$FOAM_CASE/system/fvSchemes/ddtSchemes"
Lookup scheme for snGrad(p) in dictionary "$FOAM_CASE/system/fvSchemes/snGradSchemes"
Lookup scheme for grad(p) in dictionary "$FOAM_CASE/system/fvSchemes/gradSchemes"
smoothSolver:  Solving for U.waterx, Initial residual = 0.0520548, Final residual = 4.44817e-08, No Iterations 2
smoothSolver:  Solving for U.watery, Initial residual = 0.0861398, Final residual = 7.93126e-08, No Iterations 2
Lookup scheme for interpolate((1|A(U.water))) in dictionary "$FOAM_CASE/system/fvSchemes/interpolationSchemes"
Lookup scheme for ddt(U.water) in dictionary "$FOAM_CASE/system/fvSchemes/ddtSchemes"
Lookup scheme for dotInterpolate(Sf,((2*U.water_0)-(0.5*U.water_0_0))) in dictionary "$FOAM_CASE/system/fvSchemes/interpolationSchemes"
Lookup scheme for dotInterpolate(Sf,U.water_0) in dictionary "$FOAM_CASE/system/fvSchemes/interpolationSchemes"
Lookup scheme for flux(HbyA.water) in dictionary "$FOAM_CASE/system/fvSchemes/interpolationSchemes"
Lookup scheme for ddt(alpha.water) in dictionary "$FOAM_CASE/system/fvSchemes/ddtSchemes"
Lookup scheme for laplacian((alphacf*Dp),p) in dictionary "$FOAM_CASE/system/fvSchemes/laplacianSchemes"
Lookup fluxRequired for p
Lookup scheme for grad(p) in dictionary "$FOAM_CASE/system/fvSchemes/gradSchemes"
GAMG:  Solving for p, Initial residual = 0.0694017, Final residual = 5.57495e-07, No Iterations 11
Lookup fluxRequired for p
Lookup fluxRequired for p
ExecutionTime = 8.03291 s  ClockTime = 11 s

Courant Number mean: 0.0411892 max: 0.0974495
deltaT = 0.00216319
Time = 0.0783681s


Solving 2-D cloud cloud
Cloud: cloud
    Current number of parcels       = 7500
    Current mass in system          = 0.00226
    Linear momentum                 = (2.36442e-07 -0.000109003 0)
   |Linear momentum|                = 0.000109004
    Linear kinetic energy           = 2.76268e-06
    model1:
        number of parcels added     = 7500
        mass introduced             = 0.00226
    Parcel fate (number, mass)      : patch walls
      - escape                      = 0, 0
      - stick                       = 0, 0
    Parcel fate (number, mass)      : patch outlet
      - escape                      = 0, 0
      - stick                       = 0, 0
    Min cell volume fraction        = 0
    Max cell volume fraction        = 0.0799823
    Min dense number of parcels     = 4

Lookup scheme for interpolate(alpha.water) in dictionary "$FOAM_CASE/system/fvSchemes/interpolationSchemes"
Lookup scheme for interpolate(Dc) in dictionary "$FOAM_CASE/system/fvSchemes/interpolationSchemes"
Lookup scheme for flux(Fd) in dictionary "$FOAM_CASE/system/fvSchemes/interpolationSchemes"
Lookup scheme for grad(U.water) in dictionary "$FOAM_CASE/system/fvSchemes/gradSchemes"
Lookup scheme for flux((-(alpha.water*nuEff.water)*dev2(T(grad(U.water))))) in dictionary "$FOAM_CASE/system/fvSchemes/interpolationSchemes"
Lookup fluxRequired for U.water
Lookup scheme for laplacian((alpha.water*nuEff.water),U.water) in dictionary "$FOAM_CASE/system/fvSchemes/laplacianSchemes"
Lookup fluxRequired for U.water
Lookup scheme for grad(U.water) in dictionary "$FOAM_CASE/system/fvSchemes/gradSchemes"
Lookup scheme for ddt(alpha.water) in dictionary "$FOAM_CASE/system/fvSchemes/ddtSchemes"
Lookup scheme for div(alphaPhi.water,U.water) in dictionary "$FOAM_CASE/system/fvSchemes/divSchemes"
Lookup scheme for grad(U.water) in dictionary "$FOAM_CASE/system/fvSchemes/gradSchemes"
Lookup scheme for ddt(alpha.water,U.water) in dictionary "$FOAM_CASE/system/fvSchemes/ddtSchemes"
Lookup scheme for snGrad(p) in dictionary "$FOAM_CASE/system/fvSchemes/snGradSchemes"
Lookup scheme for grad(p) in dictionary "$FOAM_CASE/system/fvSchemes/gradSchemes"
smoothSolver:  Solving for U.waterx, Initial residual = 0.129698, Final residual = 6.3429e-08, No Iterations 2
smoothSolver:  Solving for U.watery, Initial residual = 0.0972212, Final residual = 4.36355e-08, No Iterations 2
Lookup scheme for interpolate((1|A(U.water))) in dictionary "$FOAM_CASE/system/fvSchemes/interpolationSchemes"
Lookup scheme for ddt(U.water) in dictionary "$FOAM_CASE/system/fvSchemes/ddtSchemes"
Lookup scheme for dotInterpolate(Sf,((2*U.water_0)-(0.5*U.water_0_0))) in dictionary "$FOAM_CASE/system/fvSchemes/interpolationSchemes"
Lookup scheme for dotInterpolate(Sf,U.water_0) in dictionary "$FOAM_CASE/system/fvSchemes/interpolationSchemes"
Lookup scheme for flux(HbyA.water) in dictionary "$FOAM_CASE/system/fvSchemes/interpolationSchemes"
Lookup scheme for ddt(alpha.water) in dictionary "$FOAM_CASE/system/fvSchemes/ddtSchemes"
Lookup scheme for laplacian((alphacf*Dp),p) in dictionary "$FOAM_CASE/system/fvSchemes/laplacianSchemes"
Lookup fluxRequired for p
Lookup scheme for grad(p) in dictionary "$FOAM_CASE/system/fvSchemes/gradSchemes"
GAMG:  Solving for p, Initial residual = 0.207276, Final residual = 7.29182e-07, No Iterations 12
Lookup fluxRequired for p
[...]
Solving 2-D cloud cloud
Cloud: cloud
    Current number of parcels       = 7500
    Current mass in system          = 0.00226
    Linear momentum                 = (-1.16518e-06 -5.44599e-05 0)
   |Linear momentum|                = 5.44724e-05
    Linear kinetic energy           = 1.02107e-06
    model1:
        number of parcels added     = 7500
        mass introduced             = 0.00226
    Parcel fate (number, mass)      : patch walls
      - escape                      = 0, 0
      - stick                       = 0, 0
    Parcel fate (number, mass)      : patch outlet
      - escape                      = 0, 0
      - stick                       = 0, 0
    Min cell volume fraction        = 0
    Max cell volume fraction        = 0.899801
    Min dense number of parcels     = 45

Lookup scheme for interpolate(alpha.water) in dictionary "$FOAM_CASE/system/fvSchemes/interpolationSchemes"
Lookup scheme for interpolate(Dc) in dictionary "$FOAM_CASE/system/fvSchemes/interpolationSchemes"
Lookup scheme for flux(Fd) in dictionary "$FOAM_CASE/system/fvSchemes/interpolationSchemes"
Lookup scheme for grad(U.water) in dictionary "$FOAM_CASE/system/fvSchemes/gradSchemes"
Lookup scheme for flux((-(alpha.water*nuEff.water)*dev2(T(grad(U.water))))) in dictionary "$FOAM_CASE/system/fvSchemes/interpolationSchemes"
Lookup fluxRequired for U.water
Lookup scheme for laplacian((alpha.water*nuEff.water),U.water) in dictionary "$FOAM_CASE/system/fvSchemes/laplacianSchemes"
Lookup fluxRequired for U.water
Lookup scheme for grad(U.water) in dictionary "$FOAM_CASE/system/fvSchemes/gradSchemes"
Lookup scheme for ddt(alpha.water) in dictionary "$FOAM_CASE/system/fvSchemes/ddtSchemes"
Lookup scheme for div(alphaPhi.water,U.water) in dictionary "$FOAM_CASE/system/fvSchemes/divSchemes"
Lookup scheme for grad(U.water) in dictionary "$FOAM_CASE/system/fvSchemes/gradSchemes"
Lookup scheme for ddt(alpha.water,U.water) in dictionary "$FOAM_CASE/system/fvSchemes/ddtSchemes"
Lookup scheme for snGrad(p) in dictionary "$FOAM_CASE/system/fvSchemes/snGradSchemes"
Lookup scheme for grad(p) in dictionary "$FOAM_CASE/system/fvSchemes/gradSchemes"
smoothSolver:  Solving for U.waterx, Initial residual = 0.307784, Final residual = 1.97879e-06, No Iterations 1
smoothSolver:  Solving for U.watery, Initial residual = 0.213882, Final residual = 1.72865e-06, No Iterations 1
Lookup scheme for interpolate((1|A(U.water))) in dictionary "$FOAM_CASE/system/fvSchemes/interpolationSchemes"
Lookup scheme for ddt(U.water) in dictionary "$FOAM_CASE/system/fvSchemes/ddtSchemes"
Lookup scheme for dotInterpolate(Sf,((1.5*U.water_0)-(0.166667*U.water_0_0))) in dictionary "$FOAM_CASE/system/fvSchemes/interpolationSchemes"
Lookup scheme for dotInterpolate(Sf,U.water_0) in dictionary "$FOAM_CASE/system/fvSchemes/interpolationSchemes"
Lookup scheme for flux(HbyA.water) in dictionary "$FOAM_CASE/system/fvSchemes/interpolationSchemes"
Lookup scheme for ddt(alpha.water) in dictionary "$FOAM_CASE/system/fvSchemes/ddtSchemes"
Lookup scheme for laplacian((alphacf*Dp),p) in dictionary "$FOAM_CASE/system/fvSchemes/laplacianSchemes"
Lookup fluxRequired for p
Lookup scheme for grad(p) in dictionary "$FOAM_CASE/system/fvSchemes/gradSchemes"
GAMG:  Solving for p, Initial residual = 0.75603, Final residual = 5.82825e-07, No Iterations 14
Lookup fluxRequired for p
Lookup fluxRequired for p
ExecutionTime = 277.352 s  ClockTime = 283 s

Courant Number mean: 0.00122604 max: 0.0433425
deltaT = 0.000143083
Time = 0.999714s


Solving 2-D cloud cloud
Cloud: cloud
    Current number of parcels       = 7500
    Current mass in system          = 0.00226
    Linear momentum                 = (-1.04237e-06 -5.42834e-05 0)
   |Linear momentum|                = 5.42934e-05
    Linear kinetic energy           = 1.01952e-06
    model1:
        number of parcels added     = 7500
        mass introduced             = 0.00226
    Parcel fate (number, mass)      : patch walls
      - escape                      = 0, 0
      - stick                       = 0, 0
    Parcel fate (number, mass)      : patch outlet
      - escape                      = 0, 0
      - stick                       = 0, 0
    Min cell volume fraction        = 0
    Max cell volume fraction        = 0.899801
    Min dense number of parcels     = 45

Lookup scheme for interpolate(alpha.water) in dictionary "$FOAM_CASE/system/fvSchemes/interpolationSchemes"
Lookup scheme for interpolate(Dc) in dictionary "$FOAM_CASE/system/fvSchemes/interpolationSchemes"
Lookup scheme for flux(Fd) in dictionary "$FOAM_CASE/system/fvSchemes/interpolationSchemes"
Lookup scheme for grad(U.water) in dictionary "$FOAM_CASE/system/fvSchemes/gradSchemes"
Lookup scheme for flux((-(alpha.water*nuEff.water)*dev2(T(grad(U.water))))) in dictionary "$FOAM_CASE/system/fvSchemes/interpolationSchemes"
Lookup fluxRequired for U.water
Lookup scheme for laplacian((alpha.water*nuEff.water),U.water) in dictionary "$FOAM_CASE/system/fvSchemes/laplacianSchemes"
Lookup fluxRequired for U.water
Lookup scheme for grad(U.water) in dictionary "$FOAM_CASE/system/fvSchemes/gradSchemes"
Lookup scheme for ddt(alpha.water) in dictionary "$FOAM_CASE/system/fvSchemes/ddtSchemes"
Lookup scheme for div(alphaPhi.water,U.water) in dictionary "$FOAM_CASE/system/fvSchemes/divSchemes"
Lookup scheme for grad(U.water) in dictionary "$FOAM_CASE/system/fvSchemes/gradSchemes"
Lookup scheme for ddt(alpha.water,U.water) in dictionary "$FOAM_CASE/system/fvSchemes/ddtSchemes"
Lookup scheme for snGrad(p) in dictionary "$FOAM_CASE/system/fvSchemes/snGradSchemes"
Lookup scheme for grad(p) in dictionary "$FOAM_CASE/system/fvSchemes/gradSchemes"
smoothSolver:  Solving for U.waterx, Initial residual = 0.399252, Final residual = 3.12483e-06, No Iterations 1
smoothSolver:  Solving for U.watery, Initial residual = 0.302303, Final residual = 2.98652e-06, No Iterations 1
Lookup scheme for interpolate((1|A(U.water))) in dictionary "$FOAM_CASE/system/fvSchemes/interpolationSchemes"
Lookup scheme for ddt(U.water) in dictionary "$FOAM_CASE/system/fvSchemes/ddtSchemes"
Lookup scheme for dotInterpolate(Sf,((2*U.water_0)-(0.5*U.water_0_0))) in dictionary "$FOAM_CASE/system/fvSchemes/interpolationSchemes"
Lookup scheme for dotInterpolate(Sf,U.water_0) in dictionary "$FOAM_CASE/system/fvSchemes/interpolationSchemes"
Lookup scheme for flux(HbyA.water) in dictionary "$FOAM_CASE/system/fvSchemes/interpolationSchemes"
Lookup scheme for ddt(alpha.water) in dictionary "$FOAM_CASE/system/fvSchemes/ddtSchemes"
Lookup scheme for laplacian((alphacf*Dp),p) in dictionary "$FOAM_CASE/system/fvSchemes/laplacianSchemes"
Lookup fluxRequired for p
Lookup scheme for grad(p) in dictionary "$FOAM_CASE/system/fvSchemes/gradSchemes"
GAMG:  Solving for p, Initial residual = 0.858503, Final residual = 9.91917e-07, No Iterations 14
Lookup fluxRequired for p
Lookup fluxRequired for p
ExecutionTime = 277.901 s  ClockTime = 283 s

Courant Number mean: 0.0011954 max: 0.0566815
deltaT = 0.000143083
Time = 0.999857s


Solving 2-D cloud cloud
Cloud: cloud
    Current number of parcels       = 7500
    Current mass in system          = 0.00226
    Linear momentum                 = (-6.53665e-07 -5.40981e-05 0)
   |Linear momentum|                = 5.4102e-05
    Linear kinetic energy           = 1.00071e-06
    model1:
        number of parcels added     = 7500
        mass introduced             = 0.00226
    Parcel fate (number, mass)      : patch walls
      - escape                      = 0, 0
      - stick                       = 0, 0
    Parcel fate (number, mass)      : patch outlet
      - escape                      = 0, 0
      - stick                       = 0, 0
    Min cell volume fraction        = 0
    Max cell volume fraction        = 0.899801
    Min dense number of parcels     = 45

Lookup scheme for interpolate(alpha.water) in dictionary "$FOAM_CASE/system/fvSchemes/interpolationSchemes"
Lookup scheme for interpolate(Dc) in dictionary "$FOAM_CASE/system/fvSchemes/interpolationSchemes"
Lookup scheme for flux(Fd) in dictionary "$FOAM_CASE/system/fvSchemes/interpolationSchemes"
Lookup scheme for grad(U.water) in dictionary "$FOAM_CASE/system/fvSchemes/gradSchemes"
Lookup scheme for flux((-(alpha.water*nuEff.water)*dev2(T(grad(U.water))))) in dictionary "$FOAM_CASE/system/fvSchemes/interpolationSchemes"
Lookup fluxRequired for U.water
Lookup scheme for laplacian((alpha.water*nuEff.water),U.water) in dictionary "$FOAM_CASE/system/fvSchemes/laplacianSchemes"
Lookup fluxRequired for U.water
Lookup scheme for grad(U.water) in dictionary "$FOAM_CASE/system/fvSchemes/gradSchemes"
Lookup scheme for ddt(alpha.water) in dictionary "$FOAM_CASE/system/fvSchemes/ddtSchemes"
Lookup scheme for div(alphaPhi.water,U.water) in dictionary "$FOAM_CASE/system/fvSchemes/divSchemes"
Lookup scheme for grad(U.water) in dictionary "$FOAM_CASE/system/fvSchemes/gradSchemes"
Lookup scheme for ddt(alpha.water,U.water) in dictionary "$FOAM_CASE/system/fvSchemes/ddtSchemes"
Lookup scheme for snGrad(p) in dictionary "$FOAM_CASE/system/fvSchemes/snGradSchemes"
Lookup scheme for grad(p) in dictionary "$FOAM_CASE/system/fvSchemes/gradSchemes"
smoothSolver:  Solving for U.waterx, Initial residual = 0.463799, Final residual = 7.78005e-06, No Iterations 1
smoothSolver:  Solving for U.watery, Initial residual = 0.368969, Final residual = 2.96481e-09, No Iterations 2
Lookup scheme for interpolate((1|A(U.water))) in dictionary "$FOAM_CASE/system/fvSchemes/interpolationSchemes"
Lookup scheme for ddt(U.water) in dictionary "$FOAM_CASE/system/fvSchemes/ddtSchemes"
Lookup scheme for dotInterpolate(Sf,((2*U.water_0)-(0.5*U.water_0_0))) in dictionary "$FOAM_CASE/system/fvSchemes/interpolationSchemes"
Lookup scheme for dotInterpolate(Sf,U.water_0) in dictionary "$FOAM_CASE/system/fvSchemes/interpolationSchemes"
Lookup scheme for flux(HbyA.water) in dictionary "$FOAM_CASE/system/fvSchemes/interpolationSchemes"
Lookup scheme for ddt(alpha.water) in dictionary "$FOAM_CASE/system/fvSchemes/ddtSchemes"
Lookup scheme for laplacian((alphacf*Dp),p) in dictionary "$FOAM_CASE/system/fvSchemes/laplacianSchemes"
Lookup fluxRequired for p
Lookup scheme for grad(p) in dictionary "$FOAM_CASE/system/fvSchemes/gradSchemes"
GAMG:  Solving for p, Initial residual = 0.679198, Final residual = 9.67675e-07, No Iterations 14
Lookup fluxRequired for p
Lookup fluxRequired for p
ExecutionTime = 278.452 s  ClockTime = 284 s

Courant Number mean: 0.00121246 max: 0.0374497
deltaT = 0.000143083
Time = 1s


Solving 2-D cloud cloud
Cloud: cloud
    Current number of parcels       = 7500
    Current mass in system          = 0.00226
    Linear momentum                 = (-1.0904e-06 -5.42503e-05 0)
   |Linear momentum|                = 5.42612e-05
    Linear kinetic energy           = 1.00168e-06
    model1:
        number of parcels added     = 7500
        mass introduced             = 0.00226
    Parcel fate (number, mass)      : patch walls
      - escape                      = 0, 0
      - stick                       = 0, 0
    Parcel fate (number, mass)      : patch outlet
      - escape                      = 0, 0
      - stick                       = 0, 0
    Min cell volume fraction        = 0
    Max cell volume fraction        = 0.899801
    Min dense number of parcels     = 45

Lookup scheme for interpolate(alpha.water) in dictionary "$FOAM_CASE/system/fvSchemes/interpolationSchemes"
Lookup scheme for interpolate(Dc) in dictionary "$FOAM_CASE/system/fvSchemes/interpolationSchemes"
Lookup scheme for flux(Fd) in dictionary "$FOAM_CASE/system/fvSchemes/interpolationSchemes"
Lookup scheme for grad(U.water) in dictionary "$FOAM_CASE/system/fvSchemes/gradSchemes"
Lookup scheme for flux((-(alpha.water*nuEff.water)*dev2(T(grad(U.water))))) in dictionary "$FOAM_CASE/system/fvSchemes/interpolationSchemes"
Lookup fluxRequired for U.water
Lookup scheme for laplacian((alpha.water*nuEff.water),U.water) in dictionary "$FOAM_CASE/system/fvSchemes/laplacianSchemes"
Lookup fluxRequired for U.water
Lookup scheme for grad(U.water) in dictionary "$FOAM_CASE/system/fvSchemes/gradSchemes"
Lookup scheme for ddt(alpha.water) in dictionary "$FOAM_CASE/system/fvSchemes/ddtSchemes"
Lookup scheme for div(alphaPhi.water,U.water) in dictionary "$FOAM_CASE/system/fvSchemes/divSchemes"
Lookup scheme for grad(U.water) in dictionary "$FOAM_CASE/system/fvSchemes/gradSchemes"
Lookup scheme for ddt(alpha.water,U.water) in dictionary "$FOAM_CASE/system/fvSchemes/ddtSchemes"
Lookup scheme for snGrad(p) in dictionary "$FOAM_CASE/system/fvSchemes/snGradSchemes"
Lookup scheme for grad(p) in dictionary "$FOAM_CASE/system/fvSchemes/gradSchemes"
smoothSolver:  Solving for U.waterx, Initial residual = 0.455966, Final residual = 5.57135e-06, No Iterations 1
smoothSolver:  Solving for U.watery, Initial residual = 0.372956, Final residual = 6.91641e-06, No Iterations 1
Lookup scheme for interpolate((1|A(U.water))) in dictionary "$FOAM_CASE/system/fvSchemes/interpolationSchemes"
Lookup scheme for ddt(U.water) in dictionary "$FOAM_CASE/system/fvSchemes/ddtSchemes"
Lookup scheme for dotInterpolate(Sf,((2*U.water_0)-(0.5*U.water_0_0))) in dictionary "$FOAM_CASE/system/fvSchemes/interpolationSchemes"
Lookup scheme for dotInterpolate(Sf,U.water_0) in dictionary "$FOAM_CASE/system/fvSchemes/interpolationSchemes"
Lookup scheme for flux(HbyA.water) in dictionary "$FOAM_CASE/system/fvSchemes/interpolationSchemes"
Lookup scheme for ddt(alpha.water) in dictionary "$FOAM_CASE/system/fvSchemes/ddtSchemes"
Lookup scheme for laplacian((alphacf*Dp),p) in dictionary "$FOAM_CASE/system/fvSchemes/laplacianSchemes"
Lookup fluxRequired for p
Lookup scheme for grad(p) in dictionary "$FOAM_CASE/system/fvSchemes/gradSchemes"
GAMG:  Solving for p, Initial residual = 0.664955, Final residual = 6.26595e-07, No Iterations 15
Lookup fluxRequired for p
Lookup fluxRequired for p
ExecutionTime = 279.049 s  ClockTime = 284 s

End

[1] #0  Foam::error::printStack(Foam::Ostream&)[0] #0  Foam::error::printStack(Foam::Ostream&) at ??:?
 at ??:?
[0] #1  [1] #1  Foam::sigSegv::sigHandler(int)Foam::sigSegv::sigHandler(int) at ??:?
 at ??:?
[0] #2  ?[1] #2  ? in "/usr/lib/ in "/usr/lib/x86_64-linux-gnu/lx86_64-liibc.sonux-gnu/libc.so.6"
.6"
[1] #3  __dynamic_cast[0] #3  __dynamic_cast in "/usr/lib/x86_64-linux-gnu/libstdc++.so. in "/usr/lib/x86_64-linux-gnu/libs6"
tdc++.so.6"
[1] #4  ?[0] #4  ? at ??:?
 at ??:?
[1] #5  void Foam::meshObjects::clearUpto<Foam::fvMesh, Foam::DeletableMeshObject, Foam::MoveableMeshObject>(Foam::objectRegistry&)[0] #5  void Foam::meshObjects::clearUpto<Foam::fvMesh, Foam::DeletableMeshObject, Foam::MoveableMeshObject>(Foam::objectRegistry&) at ??:?
 at ??:?
[1] #6  Foam::fvMesh::clearGeomNotOldVol()[0] #6  Foam::fvMesh::clearGeomNotOldVol() at ??:?
 at ??:?
[0] #7  Foam::fvMesh::clearGeom()[1] #7  Foam::fvMesh::clearGeom() at ??:?
 at ??:?
[0] #8  Foam::fvMesh::clearOut()[1] #8  Foam::fvMesh::clearOut() at ??:?
 at ??:?
[0] #9  Foam::fvMesh::~fvMesh()[1] #9  Foam::fvMesh::~fvMesh() at ??:?
[0] #10   at ??:?
[1] #10  ?? in "/opt/openfoam12/ in "/opt/openfoam12/platforms/linux64GccDplatformPInt32s/linux64GccDPInt32Opt/bin/foamRun"
Opt/bin/foamRun"
[1] #11  ?[0] #11  ? in "/usr/lib/x86_64-linux-gnu/libc.so.6"
 in "/us[1] #12r/lib/x86_64-linu  x-gnu/libc.so.6__libc_start_main"
[0] #12  __libc_start_main in "/usr/lib/x86_64-linux-gnu/libc.so.6"
[1] #13   in "/usr/lib/x86_64-linux-gnu/libc.so.6"
[0] #13  ?? in "/opt/openfoam12/platforms/linux64GccDP in "/opInt32Optt/openfoam12/platf/bin/foamRun"
orms/linux64Gc[gaf-desktop:04927] *** Process received signal ***
cDPI[gaf-desktop:04927] Signal: Segmentation fault (11)
[gaf-desktop:04927] Signal code:  (-6)
[gaf-desktop:04927] Failing at address: 0x3e90000133f
nt32Opt/bin/foamRun"
[gaf-desktop:04927] [ 0] [gaf-desktop:04926] *** Process received signal ***
[gaf-desktop:04926] Signal: Segmentation fault (11)
[gaf-desktop:04926] Signal code:  (-6)
[gaf-desktop:04926] Failing at address: 0x3e90000133e
/usr/lib/x86_64-linux-gnu/libc.so.6(+0x42520)[0x7ac8f7842520]
[gaf-desktop:04927] [ 1] [gaf-desktop:04926] [ 0] /usr/lib/x86_64-linux-gnu/libc.so.6(pthread_kill+0x12c)[0x7ac8f78969fc]
[gaf-desktop:04927] [ 2] /usr/lib/x86_64-linux-gnu/libc.so.6(raise+0x16)[0x7ac8f7842476]
[gaf-desktop:04927] [ 3] /usr/lib/x86_64-linux-gnu/libc.so.6(+0x42520)[0x7396bf442520]
[gaf-desktop:04926] [ 1] /usr/lib/x86_64-linux-gnu/libc.so.6(pthread_kill+0x12c)[0x7396bf4969fc]
[gaf-desktop:04926] [ 2] /usr/lib/x86_64-linux-gnu/libc.so.6(+0x42520)[0x7ac8f7842520]
[gaf-desktop:04927] [ 4] /usr/lib/x86_64-linux-gnu/libc.so.6(raise+0x16)[0x7396bf442476]
[gaf-desktop:04926] [ 3] /usr/lib/x86_64-linux-gnu/libstdc++.so.6(__dynamic_cast+0x2d)[0x7ac8f7cacc9d]
[gaf-desktop:04927] [ 5] /usr/lib/x86_64-linux-gnu/libc.so.6(+0x42520)[0x7396bf442520]
[gaf-desktop:04926] [ 4] /usr/lib/x86_64-linux-gnu/libstdc++.so.6(__dynamic_cast+0x2d)[0x7396bf8acc9d]
[gaf-desktop:04926] [ 5] /opt/openfoam12/platforms/linux64GccDPInt32Opt/lib/libfiniteVolume.so(+0x7f7a0d)[0x7396c0ff7a0d]
[gaf-desktop:04926] [ 6] /opt/openfoam12/platforms/linux64GccDPInt32Opt/lib/libfiniteVolume.so(+0x7f7a0d)[0x7ac8f93f7a0d]
[gaf-desktop:04927] [ 6] /opt/openfoam12/platforms/linux64GccDPInt32Opt/lib/libfiniteVolume.so(_ZN4Foam11meshObjects9clearUptoINS_6fvMeshENS_19DeletableMeshObjectENS_18MoveableMeshObjectEEEvRNS_14objectRegistryE+0x33)[0x7396c102a623]
[gaf-desktop:04926] [ 7] /opt/openfoam12/platforms/linux64GccDPInt32Opt/lib/libfiniteVolume.so(_ZN4Foam11meshObjects9clearUptoINS_6fvMeshENS_19DeletableMeshObjectENS_18MoveableMeshObjectEEEvRNS_14objectRegistryE+0x33)[0x7ac8f942a623]
[gaf-desktop:04927] [ 7] /opt/openfoam12/platforms/linux64GccDPInt32Opt/lib/libfiniteVolume.so(_ZN4Foam6fvMesh18clearGeomNotOldVolEv+0x26)[0x7396c0fffb96]
[gaf-desktop:04926] [ 8] /opt/openfoam12/platforms/linux64GccDPInt32Opt/lib/libfiniteVolume.so(_ZN4Foam6fvMesh18clearGeomNotOldVolEv+0x26)[0x7ac8f93ffb96]
[gaf-desktop:04927] [ 8] /opt/openfoam12/platforms/linux64GccDPInt32Opt/lib/libfiniteVolume.so(_ZN4Foam6fvMesh9clearGeomEv+0x21)[0x7396c1000091]
[gaf-desktop:04926] [ 9] /opt/openfoam12/platforms/linux64GccDPInt32Opt/lib/libfiniteVolume.so(_ZN4Foam6fvMesh9clearGeomEv+0x21)[0x7ac8f9400091]
[gaf-desktop:04927] [ 9] /opt/openfoam12/platforms/linux64GccDPInt32Opt/lib/libfiniteVolume.so(_ZN4Foam6fvMesh8clearOutEv+0xd)[0x7ac8f940016d]
[gaf-desktop:04927] [10] /opt/openfoam12/platforms/linux64GccDPInt32Opt/lib/libfiniteVolume.so(_ZN4Foam6fvMesh8clearOutEv+0xd)[0x7396c100016d]
[gaf-desktop:04926] [10] /opt/openfoam12/platforms/linux64GccDPInt32Opt/lib/libfiniteVolume.so(_ZN4Foam6fvMeshD2Ev+0x3b)[0x7ac8f94001cb]
[gaf-desktop:04927] [11] foamRun(+0x4152)[0x650704700152]
[gaf-desktop:04927] [12] /usr/lib/x86_64-linux-gnu/libc.so.6(+0x29d90)[0x7ac8f7829d90]
[gaf-desktop:04927] [13] /opt/openfoam12/platforms/linux64GccDPInt32Opt/lib/libfiniteVolume.so(_ZN4Foam6fvMeshD2Ev+0x3b)[0x7396c10001cb]
[gaf-desktop:04926] [11] foamRun(+0x4152)[0x617e63767152]
[gaf-desktop:04926] [12] /usr/lib/x86_64-linux-gnu/libc.so.6(+0x29d90)[0x7396bf429d90]
[gaf-desktop:04926] [13] /usr/lib/x86_64-linux-gnu/libc.so.6(__libc_start_main+0x80)[0x7396bf429e40]
[gaf-desktop:04926] [14] foamRun(+0x4795)[0x617e63767795]
[gaf-desktop:04926] *** End of error message ***
/usr/lib/x86_64-linux-gnu/libc.so.6(__libc_start_main+0x80)[0x7ac8f7829e40]
[gaf-desktop:04927] [14] foamRun(+0x4795)[0x650704700795]
[gaf-desktop:04927] *** End of error message ***
--------------------------------------------------------------------------
Primary job  terminated normally, but 1 process returned
a non-zero exit code. Per user-direction, the job has been aborted.
--------------------------------------------------------------------------
--------------------------------------------------------------------------
mpirun noticed that process rank 1 with PID 0 on node gaf-desktop exited on signal 11 (Segmentation fault).
--------------------------------------------------------------------------
